download/pglib-opf-master/api/pglib_opf_case3375wp_k__api.m
%%%%%%%%%%%%%%%%%%%%%%%%%%%%%%%%%%%%%%%%%%%%%%%%%%%%%%%%%%%%%%%%%%%%%%%%%%%
%%%%                                                                  %%%%%
%%%%    IEEE PES Power Grid Library - Optimal Power Flow - v19.05     %%%%%
%%%%          (https://github.com/power-grid-lib/pglib-opf)           %%%%%
%%%%             Benchmark Group - Active Power Increase              %%%%%
%%%%                         08 - May - 2019                          %%%%%
%%%%                                                                  %%%%%
%%%%%%%%%%%%%%%%%%%%%%%%%%%%%%%%%%%%%%%%%%%%%%%%%%%%%%%%%%%%%%%%%%%%%%%%%%%
function mpc = pglib_opf_case3375wp_k__api
mpc.version = '2';
mpc.baseMVA = 100.0;

%% bus data
%	bus_i	type	Pd	Qd	Gs	Bs	area	Vm	Va	baseKV	zone	Vmax	Vmin
mpc.bus = [
	10000	 1	 0.0	 0.0	 0.0	 0.0	 0	    1.00000	    0.00000	 400.0	 0	    1.05000	    0.95000;
	10001	 1	 0.0	 0.0	 0.0	 0.0	 0	    1.00000	    0.00000	 400.0	 0	    1.05000	    0.95000;
	10002	 1	 0.0	 0.0	 0.0	 0.0	 0	    1.03000	    0.00000	 220.0	 0	    1.11000	    0.95000;
	10003	 1	 0.0	 0.0	 0.0	 0.0	 0	    1.00000	    0.00000	 400.0	 0	    1.05000	    0.95000;
	10004	 1	 0.0	 0.0	 0.0	 0.0	 0	    1.00000	    0.00000	 400.0	 0	    1.05000	    0.95000;
	10005	 1	 0.0	 0.0	 0.0	 0.0	 0	    1.00000	    0.00000	 400.0	 0	    1.05000	    0.95000;
	10006	 1	 0.0	 0.0	 0.0	 0.0	 0	    1.00000	    0.00000	 400.0	 0	    1.05000	    0.95000;
	10007	 1	 0.0	 0.0	 0.0	 0.0	 0	    1.03000	    0.00000	 220.0	 0	    1.11000	    0.95000;
	10008	 1	 0.0	 0.0	 0.0	 0.0	 0	    1.03000	    0.00000	 220.0	 0	    1.11000	    0.95000;
	10009	 1	 0.0	 0.0	 0.0	 0.0	 0	    1.00000	    0.00000	 400.0	 0	    1.05000	    0.95000;
	10010	 1	 0.0	 0.0	 0.0	 0.0	 0	    1.00000	    0.00000	 400.0	 0	    1.05000	    0.95000;
	10011	 1	 0.0	 0.0	 0.0	 0.0	 0	    1.00000	    0.00000	 400.0	 0	    1.05000	    0.95000;
	10012	 1	 0.0	 0.0	 0.0	 0.0	 0	    1.00000	    0.00000	 400.0	 0	    1.05000	    0.95000;
	10013	 1	 0.0	 0.0	 0.0	 0.0	 0	    1.00000	    0.00000	 400.0	 0	    1.05000	    0.95000;
	10014	 1	 0.0	 0.0	 0.0	 0.0	 0	    1.00000	    0.00000	 400.0	 0	    1.05000	    0.95000;
	10015	 1	 0.0	 0.0	 0.0	 0.0	 0	    1.00000	    0.00000	 400.0	 0	    1.05000	    0.95000;
	10016	 1	 0.0	 0.0	 0.0	 0.0	 0	    1.00000	    0.00000	 400.0	 0	    1.05000	    0.95000;
	10017	 1	 0.0	 0.0	 0.0	 0.0	 0	    1.00000	    0.00000	 400.0	 0	    1.05000	    0.95000;
	10018	 1	 0.0	 0.0	 0.0	 0.0	 0	    1.00000	    0.00000	 400.0	 0	    1.05000	    0.95000;
	10019	 1	 0.0	 0.0	 0.0	 0.0	 0	    1.00000	    0.00000	 400.0	 0	    1.05000	    0.95000;
	10020	 1	 0.0	 0.0	 0.0	 0.0	 0	    1.00000	    0.00000	 400.0	 0	    1.05000	    0.95000;
	10021	 1	 0.0	 0.0	 0.0	 0.0	 0	    1.03000	    0.00000	 220.0	 0	    1.11000	    0.95000;
	10022	 1	 0.0	 0.0	 0.0	 0.0	 0	    1.03000	    0.00000	 220.0	 0	    1.11000	    0.95000;
	10023	 1	 0.0	 0.0	 0.0	 0.0	 0	    1.00000	    0.00000	 400.0	 0	    1.05000	    0.95000;
	10024	 1	 0.0	 0.0	 0.0	 0.0	 0	    1.00000	    0.00000	 400.0	 0	    1.05000	    0.95000;
	10025	 1	 0.0	 0.0	 0.0	 0.0	 0	    1.00000	    0.00000	 400.0	 0	    1.05000	    0.95000;
	10026	 1	 0.0	 0.0	 0.0	 0.0	 0	    1.00000	    0.00000	 400.0	 0	    1.05000	    0.95000;
	10027	 1	 0.0	 0.0	 0.0	 0.0	 0	    1.00000	    0.00000	 400.0	 0	    1.05000	    0.95000;
	10028	 1	 0.0	 0.0	 0.0	 0.0	 0	    1.00000	    0.00000	 400.0	 0	    1.05000	    0.95000;
	10029	 1	 0.0	 0.0	 0.0	 0.0	 0	    1.00000	    0.00000	 400.0	 0	    1.05000	    0.95000;
	10030	 1	 0.0	 0.0	 0.0	 0.0	 0	    1.00000	    0.00000	 400.0	 0	    1.05000	    0.95000;
	10031	 1	 0.0	 0.0	 0.0	 0.0	 0	    1.03000	    0.00000	 220.0	 0	    1.11000	    0.95000;
	10032	 1	 0.0	 0.0	 0.0	 0.0	 0	    1.00000	    0.00000	 400.0	 0	    1.05000	    0.95000;
	10033	 1	 0.0	 0.0	 0.0	 0.0	 0	    1.00000	    0.00000	 400.0	 0	    1.05000	    0.95000;
	10034	 1	 0.0	 0.0	 0.0	 0.0	 0	    1.00000	    0.00000	 400.0	 0	    1.05000	    0.95000;
	10035	 1	 0.0	 0.0	 0.0	 0.0	 0	    1.03000	    0.00000	 220.0	 0	    1.11000	    0.95000;
	10036	 1	 0.0	 0.0	 0.0	 0.0	 0	    1.03000	    0.00000	 220.0	 0	    1.11000	    0.95000;
	10037	 1	 0.0	 0.0	 0.0	 0.0	 0	    1.00000	    0.00000	 400.0	 0	    1.05000	    0.95000;
	10038	 1	 0.0	 0.0	 0.0	 0.0	 0	    1.00000	    0.00000	 400.0	 0	    1.05000	    0.95000;
	10039	 1	 0.0	 0.0	 0.0	 0.0	 0	    1.00000	    0.00000	 400.0	 0	    1.05000	    0.95000;
	10040	 1	 0.0	 0.0	 0.0	 0.0	 0	    1.00000	    0.00000	 400.0	 0	    1.05000	    0.95000;
	10041	 1	 0.0	 0.0	 0.0	 0.0	 0	    1.00000	    0.00000	 400.0	 0	    1.05000	    0.95000;
	10042	 1	 0.0	 0.0	 0.0	 0.0	 0	    1.00000	    0.00000	 400.0	 0	    1.05000	    0.95000;
	10043	 1	 0.0	 0.0	 0.0	 0.0	 0	    1.03000	    0.00000	 220.0	 0	    1.11000	    0.95000;
	10044	 1	 0.0	 0.0	 0.0	 0.0	 0	    1.03000	    0.00000	 220.0	 0	    1.11000	    0.95000;
	10045	 1	 0.0	 0.0	 0.0	 0.0	 0	    1.03000	    0.00000	 220.0	 0	    1.11000	    0.95000;
	10046	 1	 0.0	 0.0	 0.0	 0.0	 0	    1.03000	    0.00000	 220.0	 0	    1.11000	    0.95000;
	10047	 1	 0.0	 0.0	 0.0	 0.0	 0	    1.00000	    0.00000	 400.0	 0	    1.05000	    0.95000;
	10048	 1	 0.0	 0.0	 0.0	 0.0	 0	    1.00000	    0.00000	 400.0	 0	    1.05000	    0.95000;
	10049	 1	 0.0	 0.0	 0.0	 0.0	 0	    1.00000	    0.00000	 400.0	 0	    1.05000	    0.95000;
	10050	 1	 0.0	 0.0	 0.0	 0.0	 0	    1.00000	    0.00000	 400.0	 0	    1.05000	    0.95000;
	10051	 1	 0.0	 0.0	 0.0	 0.0	 0	    1.03000	    0.00000	 220.0	 0	    1.11000	    0.95000;
	10052	 1	 0.0	 0.0	 0.0	 0.0	 0	    1.00000	    0.00000	 400.0	 0	    1.05000	    0.95000;
	10053	 1	 0.0	 0.0	 0.0	 0.0	 0	    1.03000	    0.00000	 220.0	 0	    1.11000	    0.95000;
	10054	 1	 0.0	 0.0	 0.0	 0.0	 0	    1.03000	    0.00000	 220.0	 0	    1.11000	    0.95000;
	10055	 1	 0.0	 0.0	 0.0	 0.0	 0	    1.03000	    0.00000	 220.0	 0	    1.11000	    0.95000;
	10056	 1	 0.0	 0.0	 0.0	 0.0	 0	    1.00000	    0.00000	 400.0	 0	    1.05000	    0.95000;
	10057	 1	 0.0	 0.0	 0.0	 0.0	 0	    1.00000	    0.00000	 400.0	 0	    1.05000	    0.95000;
	10058	 1	 0.0	 0.0	 0.0	 0.0	 0	    1.03000	    0.00000	 220.0	 0	    1.11000	    0.95000;
	10059	 1	 0.0	 0.0	 0.0	 0.0	 0	    1.00000	    0.00000	 400.0	 0	    1.05000	    0.95000;
	10060	 1	 0.0	 0.0	 0.0	 0.0	 0	    1.00000	    0.00000	 400.0	 0	    1.05000	    0.95000;
	10061	 1	 0.0	 0.0	 0.0	 0.0	 0	    1.00000	    0.00000	 400.0	 0	    1.05000	    0.95000;
	10062	 1	 0.0	 0.0	 0.0	 0.0	 0	    1.00000	    0.00000	 400.0	 0	    1.05000	    0.95000;
	10063	 1	 0.0	 0.0	 0.0	 0.0	 0	    1.00000	    0.00000	 400.0	 0	    1.05000	    0.95000;
	10064	 1	 0.0	 0.0	 0.0	 0.0	 0	    1.03000	    0.00000	 220.0	 0	    1.11000	    0.95000;
	10065	 1	 0.0	 0.0	 0.0	 0.0	 0	    1.00000	    0.00000	 400.0	 0	    1.05000	    0.95000;
	10066	 1	 0.0	 0.0	 0.0	 0.0	 0	    1.00000	    0.00000	 400.0	 0	    1.05000	    0.95000;
	10067	 1	 0.0	 0.0	 0.0	 0.0	 0	    1.03000	    0.00000	 220.0	 0	    1.11000	    0.95000;
	10068	 1	 0.0	 0.0	 0.0	 0.0	 0	    1.00000	    0.00000	 400.0	 0	    1.05000	    0.95000;
	10069	 1	 0.0	 0.0	 0.0	 0.0	 0	    1.03000	    0.00000	 220.0	 0	    1.11000	    0.95000;
	10070	 1	 0.0	 0.0	 0.0	 0.0	 0	    1.00000	    0.00000	 400.0	 0	    1.05000	    0.95000;
	10071	 2	 18.45	 8.00	 0.0	 0.0	 0	    1.03000	    0.00000	 220.0	 0	    1.11000	    0.95000;
	10072	 1	 0.0	 0.0	 0.0	 0.0	 0	    1.03000	    0.00000	 220.0	 0	    1.11000	    0.95000;
	10073	 1	 0.0	 0.0	 0.0	 0.0	 1	    1.03000	    0.00000	 220.0	 0	    1.11000	    0.95000;
	10074	 1	 0.0	 0.0	 0.0	 0.0	 0	    1.03000	    0.00000	 220.0	 0	    1.11000	    0.95000;
	10075	 1	 0.0	 0.0	 0.0	 0.0	 0	    1.03000	    0.00000	 220.0	 0	    1.11000	    0.95000;
	10076	 1	 0.0	 0.0	 0.0	 0.0	 0	    1.00000	    0.00000	 400.0	 0	    1.05000	    0.95000;
	10077	 1	 0.0	 0.0	 0.0	 0.0	 0	    1.00000	    0.00000	 400.0	 0	    1.05000	    0.95000;
	10078	 1	 305.50	 -14.00	 0.0	 0.0	 0	    1.00000	    0.00000	 400.0	 0	    1.05000	    0.95000;
	10079	 2	 -1529.60	 4542.90	 0.0	 0.0	 0	    1.00000	    0.00000	 400.0	 0	    1.05000	    0.95000;
	10080	 2	 -159.10	 -181.00	 0.0	 0.0	 0	    1.00000	    0.00000	 400.0	 0	    1.05000	    0.95000;
	10081	 1	 -1078.30	 -374.10	 0.0	 0.0	 0	    1.00000	    0.00000	 400.0	 0	    1.05000	    0.95000;
	10082	 1	 1087.71	 310.20	 0.0	 0.0	 0	    1.00000	    0.00000	 400.0	 0	    1.05000	    0.95000;
	10083	 1	 111.86	 26.00	 0.0	 0.0	 0	    1.00000	    0.00000	 400.0	 0	    1.05000	    0.95000;
	10084	 1	 0.69	 160.00	 0.0	 0.0	 0	    1.00000	    0.00000	 400.0	 0	    1.05000	    0.95000;
	10085	 1	 186.36	 183.60	 0.0	 0.0	 0	    1.00000	    0.00000	 400.0	 0	    1.05000	    0.95000;
	10086	 1	 332.82	 221.60	 0.0	 0.0	 0	    1.00000	    0.00000	 400.0	 0	    1.05000	    0.95000;
	10087	 1	 0.0	 0.0	 0.0	 0.0	 0	    1.00000	    0.00000	 400.0	 0	    1.05000	    0.95000;
	10088	 1	 0.0	 0.0	 0.0	 0.0	 0	    1.03000	    0.00000	 220.0	 0	    1.11000	    0.95000;
	10089	 1	 0.0	 0.0	 0.0	 0.0	 0	    1.03000	    0.00000	 220.0	 0	    1.11000	    0.95000;
	10090	 2	 316.44	 279.60	 0.0	 0.0	 0	    1.00000	    0.00000	 400.0	 0	    1.05000	    0.95000;
	10091	 1	 108.63	 111.80	 0.0	 0.0	 0	    1.00000	    0.00000	 400.0	 0	    1.05000	    0.95000;
	10092	 1	 0.0	 0.0	 0.0	 0.0	 0	    1.03000	    0.00000	 220.0	 0	    1.11000	    0.95000;
	10093	 1	 0.0	 0.0	 0.0	 0.0	 0	    1.03000	    0.00000	 220.0	 0	    1.11000	    0.95000;
	10094	 2	 0.0	 0.0	 0.0	 0.0	 0	    1.00000	    0.00000	 400.0	 0	    1.05000	    0.95000;
	10095	 2	 4.40	 -2590.10	 0.0	 0.0	 0	    1.00000	    0.00000	 400.0	 0	    1.05000	    0.95000;
	10096	 1	 562.77	 79.10	 0.0	 0.0	 0	    1.00000	    0.00000	 400.0	 0	    1.05000	    0.95000;
	10097	 1	 693.08	 147.90	 0.0	 0.0	 0	    1.00000	    0.00000	 400.0	 0	    1.05000	    0.95000;
	10098	 1	 607.75	 265.10	 0.0	 0.0	 0	    1.00000	    0.00000	 400.0	 0	    1.05000	    0.95000;
	10099	 1	 0.0	 0.0	 0.0	 0.0	 0	    1.00000	    0.00000	 400.0	 0	    1.05000	    0.95000;
	10100	 2	 0.0	 0.0	 0.0	 0.0	 0	    1.00000	    0.00000	 400.0	 0	    1.05000	    0.95000;
	10101	 1	 0.0	 0.0	 0.0	 0.0	 0	    1.03000	    0.00000	 220.0	 0	    1.11000	    0.95000;
	10102	 1	 138.39	 25.00	 0.0	 0.0	 0	    1.03000	    0.00000	 220.0	 0	    1.11000	    0.95000;
	10103	 1	 0.0	 0.0	 0.0	 0.0	 0	    1.00000	    0.00000	 400.0	 0	    1.05000	    0.95000;
	10104	 2	 230.87	 48.70	 0.0	 0.0	 0	    1.00000	    0.00000	 400.0	 0	    1.05000	    0.95000;
	10105	 1	 0.0	 0.0	 0.0	 0.0	 0	    1.03000	    0.00000	 220.0	 0	    1.11000	    0.95000;
	10106	 1	 0.0	 0.0	 0.0	 0.0	 0	    1.00000	    0.00000	 400.0	 0	    1.05000	    0.95000;
	10107	 1	 0.0	 0.0	 0.0	 0.0	 0	    1.00000	    0.00000	 400.0	 0	    1.05000	    0.95000;
	10108	 1	 0.0	 0.0	 0.0	 0.0	 0	    1.00000	    0.00000	 400.0	 0	    1.05000	    0.95000;
	10109	 1	 0.0	 0.0	 0.0	 0.0	 0	    1.00000	    0.00000	 400.0	 0	    1.05000	    0.95000;
	10110	 1	 0.0	 0.0	 0.0	 0.0	 0	    1.00000	    0.00000	 400.0	 0	    1.05000	    0.95000;
	10111	 1	 0.0	 0.0	 0.0	 0.0	 0	    1.00000	    0.00000	 400.0	 0	    1.05000	    0.95000;
	10112	 1	 0.0	 0.0	 0.0	 0.0	 0	    1.03000	    0.00000	 220.0	 0	    1.11000	    0.95000;
	10113	 1	 0.0	 0.0	 0.0	 0.0	 0	    1.00000	    0.00000	 400.0	 0	    1.05000	    0.95000;
	10114	 1	 0.0	 0.0	 0.0	 0.0	 0	    1.03000	    0.00000	 220.0	 0	    1.11000	    0.95000;
	10115	 2	 0.0	 0.0	 0.0	 0.0	 0	    1.00000	    0.00000	 400.0	 0	    1.05000	    0.95000;
	10116	 2	 0.0	 0.0	 0.0	 0.0	 0	    1.00000	    0.00000	 400.0	 0	    1.05000	    0.95000;
	10117	 1	 0.0	 0.0	 0.0	 0.0	 0	    1.00000	    0.00000	 400.0	 0	    1.05000	    0.95000;
	10118	 2	 0.0	 0.0	 0.0	 0.0	 0	    1.00000	    0.00000	 400.0	 0	    1.05000	    0.95000;
	10119	 1	 0.0	 0.0	 0.0	 0.0	 0	    1.00000	    0.00000	 400.0	 0	    1.05000	    0.95000;
	10120	 1	 0.0	 0.0	 0.0	 0.0	 0	    1.00000	    0.00000	 400.0	 0	    1.05000	    0.95000;
	10121	 1	 92.26	 20.00	 0.0	 0.0	 0	    1.03000	    0.00000	 220.0	 0	    1.11000	    0.95000;
	10122	 1	 0.0	 0.0	 0.0	 0.0	 0	    1.03000	    0.00000	 220.0	 0	    1.11000	    0.95000;
	10123	 1	 0.0	 0.0	 0.0	 0.0	 0	    1.00000	    0.00000	 400.0	 0	    1.05000	    0.95000;
	10124	 1	 0.0	 0.0	 0.0	 0.0	 0	    1.00000	    0.00000	 400.0	 0	    1.05000	    0.95000;
	10125	 1	 0.0	 0.0	 0.0	 0.0	 0	    1.00000	    0.00000	 400.0	 0	    1.05000	    0.95000;
	10126	 2	 0.0	 0.0	 0.0	 0.0	 0	    1.00000	    0.00000	 400.0	 0	    1.05000	    0.95000;
	10127	 1	 0.0	 0.0	 0.0	 0.0	 0	    1.03000	    0.00000	 220.0	 0	    1.11000	    0.95000;
	10128	 1	 0.0	 0.0	 0.0	 0.0	 0	    1.03000	    0.00000	 220.0	 0	    1.11000	    0.95000;
	10129	 2	 0.23	 100.00	 0.0	 0.0	 0	    1.00000	    0.00000	 400.0	 0	    1.05000	    0.95000;
	10130	 1	 0.0	 0.0	 0.0	 0.0	 0	    1.00000	    0.00000	 400.0	 0	    1.05000	    0.95000;
	10131	 1	 0.0	 0.0	 0.0	 0.0	 0	    1.00000	    0.00000	 400.0	 0	    1.05000	    0.95000;
	10132	 2	 0.0	 0.0	 0.0	 0.0	 0	    1.00000	    0.00000	 400.0	 0	    1.05000	    0.95000;
	10133	 1	 0.0	 0.0	 0.0	 0.0	 0	    1.00000	    0.00000	 400.0	 0	    1.05000	    0.95000;
	10134	 1	 0.0	 0.0	 0.0	 0.0	 0	    1.00000	    0.00000	 400.0	 0	    1.05000	    0.95000;
	10135	 1	 0.0	 0.0	 0.0	 0.0	 0	    1.03000	    0.00000	 220.0	 0	    1.11000	    0.95000;
	10136	 1	 0.0	 0.0	 0.0	 0.0	 0	    1.03000	    0.00000	 220.0	 0	    1.11000	    0.95000;
	10137	 1	 0.0	 0.0	 0.0	 0.0	 0	    1.03000	    0.00000	 220.0	 0	    1.11000	    0.95000;
	10138	 1	 0.0	 0.0	 0.0	 0.0	 0	    1.00000	    0.00000	 400.0	 0	    1.05000	    0.95000;
	10139	 2	 0.0	 0.0	 0.0	 0.0	 0	    1.00000	    0.00000	 400.0	 0	    1.05000	    0.95000;
	10140	 2	 0.0	 0.0	 0.0	 0.0	 0	    1.00000	    0.00000	 400.0	 0	    1.05000	    0.95000;
	10141	 2	 0.0	 0.0	 0.0	 0.0	 0	    1.00000	    0.00000	 400.0	 0	    1.05000	    0.95000;
	10142	 1	 0.0	 0.0	 0.0	 0.0	 0	    1.00000	    0.00000	 400.0	 0	    1.05000	    0.95000;
	10143	 1	 0.0	 0.0	 0.0	 0.0	 0	    1.00000	    0.00000	 400.0	 0	    1.05000	    0.95000;
	10144	 1	 0.0	 0.0	 0.0	 0.0	 0	    1.00000	    0.00000	 400.0	 0	    1.05000	    0.95000;
	10145	 1	 0.0	 0.0	 0.0	 0.0	 0	    1.00000	    0.00000	 400.0	 0	    1.05000	    0.95000;
	10146	 2	 0.0	 0.0	 0.0	 0.0	 0	    1.03000	    0.00000	 220.0	 0	    1.11000	    0.95000;
	10147	 1	 0.0	 0.0	 0.0	 0.0	 0	    1.00000	    0.00000	 400.0	 0	    1.05000	    0.95000;
	10148	 1	 0.0	 0.0	 0.0	 0.0	 0	    1.03000	    0.00000	 220.0	 0	    1.11000	    0.95000;
	10149	 1	 0.0	 0.0	 0.0	 0.0	 0	    1.03000	    0.00000	 220.0	 0	    1.11000	    0.95000;
	10150	 2	 0.0	 0.0	 0.0	 0.0	 0	    1.00000	    0.00000	 400.0	 0	    1.05000	    0.95000;
	10151	 1	 0.0	 0.0	 0.0	 0.0	 0	    1.00000	    0.00000	 400.0	 0	    1.05000	    0.95000;
	10152	 1	 0.0	 0.0	 0.0	 0.0	 0	    1.00000	    0.00000	 400.0	 0	    1.05000	    0.95000;
	10153	 1	 0.0	 0.0	 0.0	 0.0	 0	    1.00000	    0.00000	 400.0	 0	    1.05000	    0.95000;
	10154	 1	 92.26	 20.00	 0.0	 0.0	 0	    1.03000	    0.00000	 220.0	 0	    1.11000	    0.95000;
	10155	 1	 0.0	 0.0	 0.0	 0.0	 0	    1.03000	    0.00000	 220.0	 0	    1.11000	    0.95000;
	10156	 1	 0.0	 0.0	 0.0	 0.0	 0	    1.00000	    0.00000	 400.0	 0	    1.05000	    0.95000;
	10157	 1	 0.0	 0.0	 0.0	 0.0	 0	    1.03000	    0.00000	 220.0	 0	    1.11000	    0.95000;
	10158	 1	 0.0	 0.0	 0.0	 0.0	 0	    1.00000	    0.00000	 400.0	 0	    1.05000	    0.95000;
	10159	 1	 0.0	 0.0	 0.0	 0.0	 0	    1.03000	    0.00000	 220.0	 0	    1.11000	    0.95000;
	10160	 1	 0.0	 0.0	 0.0	 0.0	 0	    1.03000	    0.00000	 220.0	 0	    1.11000	    0.95000;
	10161	 1	 0.0	 0.0	 0.0	 0.0	 0	    1.00000	    0.00000	 400.0	 0	    1.05000	    0.95000;
	10162	 1	 0.0	 0.0	 0.0	 0.0	 0	    1.03000	    0.00000	 220.0	 0	    1.11000	    0.95000;
	10163	 1	 0.0	 0.0	 0.0	 0.0	 0	    1.03000	    0.00000	 220.0	 0	    1.11000	    0.95000;
	10164	 1	 0.0	 0.0	 0.0	 0.0	 0	    1.00000	    0.00000	 400.0	 0	    1.05000	    0.95000;
	10165	 1	 0.0	 0.0	 0.0	 0.0	 0	    1.00000	    0.00000	 400.0	 0	    1.05000	    0.95000;
	10166	 1	 0.0	 0.0	 0.0	 0.0	 0	    1.03000	    0.00000	 220.0	 0	    1.11000	    0.95000;
	10167	 1	 0.0	 0.0	 0.0	 0.0	 0	    1.00000	    0.00000	 400.0	 0	    1.05000	    0.95000;
	10168	 1	 0.0	 0.0	 0.0	 0.0	 0	    1.00000	    0.00000	 400.0	 0	    1.05000	    0.95000;
	10169	 1	 0.0	 0.0	 0.0	 0.0	 0	    1.00000	    0.00000	 400.0	 0	    1.05000	    0.95000;
	10170	 1	 0.0	 0.0	 0.0	 0.0	 0	    1.00000	    0.00000	 400.0	 0	    1.05000	    0.95000;
	10171	 2	 -104.80	 -159.00	 0.0	 0.0	 0	    1.00000	    0.00000	 400.0	 0	    1.05000	    0.95000;
	10172	 1	 247.40	 -57.50	 0.0	 0.0	 0	    1.00000	    0.00000	 400.0	 0	    1.05000	    0.95000;
	10173	 1	 247.40	 -57.50	 0.0	 0.0	 0	    1.00000	    0.00000	 400.0	 0	    1.05000	    0.95000;
	10174	 1	 428.42	 403.50	 0.0	 0.0	 0	    1.00000	    0.00000	 400.0	 0	    1.05000	    0.95000;
	10176	 2	 -249.90	 162.60	 0.0	 0.0	 0	    1.00000	    0.00000	 400.0	 0	    1.05000	    0.95000;
	10177	 2	 -249.90	 162.60	 0.0	 0.0	 0	    1.00000	    0.00000	 400.0	 0	    1.05000	    0.95000;
	10178	 1	 60.54	 207.20	 0.0	 0.0	 0	    1.00000	    0.00000	 400.0	 0	    1.05000	    0.95000;
	10179	 1	 437.65	 54.60	 0.0	 0.0	 0	    1.00000	    0.00000	 400.0	 0	    1.05000	    0.95000;
	10180	 1	 73.60	 -95.60	 0.0	 0.0	 0	    1.03000	    0.00000	 220.0	 0	    1.11000	    0.95000;
	10181	 1	 73.60	 -95.60	 0.0	 0.0	 0	    1.03000	    0.00000	 220.0	 0	    1.11000	    0.95000;
	10182	 1	 107.20	 -44.40	 0.0	 0.0	 0	    1.00000	    0.00000	 400.0	 0	    1.05000	    0.95000;
	10183	 1	 99.18	 8.00	 0.0	 0.0	 0	    1.00000	    0.00000	 400.0	 0	    1.05000	    0.95000;
	10184	 1	 80.73	 49.00	 0.0	 0.0	 0	    1.03000	    0.00000	 220.0	 0	    1.11000	    0.95000;
	10185	 1	 0.0	 0.0	 0.0	 0.0	 0	    1.00000	    0.00000	 400.0	 0	    1.05000	    0.95000;
	10186	 2	 0.0	 0.0	 0.0	 0.0	 0	    1.03000	    0.00000	 220.0	 0	    1.11000	    0.95000;
	10187	 2	 0.0	 0.0	 0.0	 0.0	 0	    1.03000	    0.00000	 220.0	 0	    1.11000	    0.95000;
	10188	 2	 0.0	 0.0	 0.0	 0.0	 0	    1.00000	    0.00000	 400.0	 0	    1.05000	    0.95000;
	10189	 2	 10.20	 0.00	 0.0	 0.0	 0	    1.00000	    0.00000	 400.0	 0	    1.05000	    0.95000;
	10190	 2	 0.0	 0.0	 0.0	 0.0	 0	    1.00000	    0.00000	 400.0	 0	    1.05000	    0.95000;
	10191	 2	 0.0	 0.0	 0.0	 0.0	 0	    1.00000	    0.00000	 400.0	 0	    1.05000	    0.95000;
	10192	 2	 0.0	 0.0	 0.0	 0.0	 0	    1.03000	    0.00000	 220.0	 0	    1.11000	    0.95000;
	10193	 1	 0.0	 0.0	 0.0	 0.0	 0	    1.03000	    0.00000	 220.0	 0	    1.11000	    0.95000;
	10194	 2	 0.0	 0.0	 0.0	 0.0	 0	    1.00000	    0.00000	 400.0	 0	    1.05000	    0.95000;
	10195	 1	 0.0	 0.0	 0.0	 0.0	 0	    1.00000	    0.00000	 400.0	 0	    1.05000	    0.95000;
	10196	 2	 0.0	 0.0	 0.0	 0.0	 0	    1.00000	    0.00000	 400.0	 0	    1.05000	    0.95000;
	10197	 1	 340.20	 51.90	 0.0	 0.0	 0	    1.00000	    0.00000	 400.0	 0	    1.05000	    0.95000;
	10198	 1	 0.0	 0.0	 0.0	 0.0	 0	    1.00000	    0.00000	 400.0	 0	    1.05000	    0.95000;
	10199	 1	 355.19	 40.00	 0.0	 0.0	 0	    1.03000	    0.00000	 220.0	 0	    1.11000	    0.95000;
	10200	 1	 0.0	 0.0	 0.0	 0.0	 0	    1.03000	    0.00000	 220.0	 0	    1.11000	    0.95000;
...
];

%% generator data
%	bus	Pg	Qg	Qmax	Qmin	Vg	mBase	status	Pmax	Pmin
mpc.gen = [
	10071	 197.975	 0.0	 165.0	 -165.0	 1.03	 285.0	 1	 329	 66.95; % NG
	10079	 388.475	 0.0	 5107.2	 -5107.2	 1.0	 2031.0	 1	 597	 179.95; % COW
	10080	 46.9	 0.0	 96.0	 -96.0	 1.0	 119.0	 1	 90	 3.8; % NG
	10090	 327.1	 0.0	 314.0	 -314.0	 1.0	 806.0	 1	 449	 205.2; % NG
	10094	 486.6	 0.0	 201838.8	 -201838.8	 1.0	 970.0	 1	 696	 277.2; % COW
	10095	 284.95	 0.0	 3284.4	 -3284.4	 1.0	 1439.0	 1	 509	 60.9; % COW
	10100	 1122.3	 0.0	 968.0	 -968.0	 1.0	 2202.0	 1	 1611	 633.6; % COW
	10104	 487.5	 0.0	 413.0	 -413.0	 1.0	 939.0	 1	 705	 270.0; % COW
	10115	 247.2	 0.0	 215.0	 -215.0	 1.0	 492.0	 1	 354	 140.4; % COW
	10116	 228.7	 0.0	 215.0	 -215.0	 1.0	 492.0	 1	 317	 140.4; % NG
	10118	 861.0	 0.0	 825.0	 -825.0	 1.0	 1876.0	 1	 1182	 540.0; % COW
	10126	 461.2	 0.0	 355.0	 -355.0	 1.0	 786.0	 1	 710	 212.4; % COW
	10129	 1299.0	 0.0	 1265.0	 -1265.0	 1.0	 2974.0	 1	 1770	 828.0; % NUC
	10132	 618.3	 0.0	 473.0	 -473.0	 1.0	 1014.0	 1	 945	 291.6; % COW
	10139	 606.5	 0.0	 495.0	 -495.0	 1.0	 1143.0	 1	 889	 324.0; % COW
	10140	 836.0	 0.0	 743.0	 -743.0	 1.0	 1705.0	 1	 1186	 486.0; % COW
	10141	 1021.0	 0.0	 935.0	 -935.0	 1.0	 2125.0	 1	 1430	 612.0; % COW
	10146	 119.8	 0.0	 139.2	 -139.2	 1.03	 224.0	 1	 182	 57.6; % NG
	10150	 173.9	 0.0	 154.0	 -154.0	 1.0	 427.0	 1	 247	 100.8; % NG
	10171	 186.65	 0.0	 183571.2	 -183571.2	 1.0	 715.0	 1	 331	 42.3; % COW
	10176	 152.75	 0.0	 584.4	 -584.4	 1.0	 346.0	 1	 210	 95.5; % NG
	10177	 353.75	 0.0	 584.4	 -584.4	 1.0	 346.0	 1	 612	 95.5; % NG
	10186	 352.675	 0.0	 268.0	 -268.0	 1.03	 618.0	 1	 534	 171.35; % COW
	10187	 306.175	 0.0	 268.0	 -268.0	 1.03	 618.0	 1	 441	 171.35; % COW
	10188	 440.45	 0.0	 354.0	 -354.0	 1.0	 618.0	 1	 707	 173.9; % COW
	10189	 279.25	 0.0	 272.0	 -272.0	 1.0	 620.0	 1	 417	 141.5; % COW
	10190	 308.875	 0.0	 301.0	 -301.0	 1.0	 683.0	 1	 432	 185.75; % COW
	10191	 571.7	 0.0	 479.0	 -479.0	 1.0	 682.0	 1	 958	 185.4; % COW
	10192	 245.9	 0.0	 218.0	 -218.0	 1.03	 281.0	 1	 436	 55.8; % COW
	10194	 91.2	 0.0	 106.8	 -106.8	 1.0	 184.0	 1	 150	 32.4; % NG
	10196	 147.5	 0.0	 121.0	 -121.0	 1.0	 215.0	 1	 241	 54.0; % NG
	10223	 32.5	 0.0	 195.6	 -195.6	 1.0	 189.0	 1	 65	 0.0; % NG
	10225	 203.95	 0.0	 185.0	 -185.0	 1.035	 333.0	 1	 369	 38.9; % NG
	10226	 159.65	 0.0	 151.0	 -151.0	 1.035	 198.0	 1	 302	 17.3; % NG
	10227	 36.375	 0.0	 73.2	 -73.2	 1.035	 191.0	 1	 67	 5.75; % PEL
	10228	 108.675	 0.0	 147.6	 -147.6	 1.035	 135.0	 1	 208	 9.35; % PEL
	10229	 67.4	 0.0	 58.0	 -58.0	 1.035	 85.0	 1	 115	 19.8; % NG
	10230	 7.5	 0.0	 40.8	 -40.8	 1.035	 132.0	 1	 15	 0.0; % NG
	10232	 102.3	 0.0	 118.8	 -118.8	 1.035	 64.0	 1	 199	 5.6; % NG
	10233	 87.35	 0.0	 76.0	 -76.0	 1.035	 79.0	 1	 152	 22.7; % PEL
	10234	 121.9	 0.0	 174.0	 -174.0	 1.035	 115.0	 1	 242	 1.8; % NG
	10235	 65.2	 0.0	 58.0	 -58.0	 1.035	 83.0	 1	 116	 14.4; % NG
	10236	 113.875	 0.0	 92.0	 -92.0	 1.035	 219.0	 1	 168	 59.75; % NG
	10237	 77.6	 0.0	 118.8	 -118.8	 1.035	 121.0	 1	 130	 25.2; % PEL
	10238	 105.975	 0.0	 262.8	 -262.8	 1.035	 179.0	 1	 181	 30.95; % NG
	10239	 128.65	 0.0	 113.0	 -113.0	 1.035	 109.0	 1	 226	 31.3; % NG
	10240	 42.0	 0.0	 42.0	 -42.0	 1.035	 128.0	 1	 84	 0.0; % NG
	10246	 129.05	 0.0	 112.0	 -112.0	 1.035	 262.0	 1	 185	 73.1; % NG
	10247	 83.05	 0.0	 79.0	 -79.0	 1.035	 215.0	 1	 115	 51.1; % NG
	10248	 148.1	 0.0	 118.0	 -118.0	 1.035	 241.0	 1	 235	 61.2; % NG
	10249	 191.5	 0.0	 160.0	 -160.0	 1.035	 225.0	 1	 319	 64.0; % NG
	10250	 637.1	 0.0	 544.0	 -544.0	 1.035	 650.0	 1	 1087	 187.2; % COW
	10251	 325.1	 0.0	 286.0	 -286.0	 1.035	 650.0	 1	 463	 187.2; % COW
	10252	 410.1	 0.0	 317.0	 -317.0	 1.035	 650.0	 1	 633	 187.2; % COW
	10253	 214.475	 0.0	 168.0	 -168.0	 1.035	 341.0	 1	 335	 93.95; % NG
	10254	 277.675	 0.0	 262.0	 -262.0	 1.035	 598.0	 1	 384	 171.35; % NG
	10255	 146.75	 0.0	 117.0	 -117.0	 1.035	 210.0	 1	 233	 60.5; % NG
	10256	 258.2	 0.0	 215.0	 -215.0	 1.035	 489.0	 1	 376	 140.4; % COW
	10257	 150.1	 0.0	 115.0	 -115.0	 1.035	 250.0	 1	 230	 70.2; % NG
	10258	 173.4	 0.0	 141.0	 -141.0	 1.035	 230.0	 1	 282	 64.8; % COW
	10259	 269.925	 0.0	 217.0	 -217.0	 1.035	 519.0	 1	 398	 141.85; % NG
	10260	 358.875	 0.0	 326.0	 -326.0	 1.035	 741.0	 1	 505	 212.75; % COW
	10261	 510.9	 0.0	 476.0	 -476.0	 1.035	 1100.0	 1	 732	 289.8; % COW
	10262	 502.9	 0.0	 476.0	 -476.0	 1.035	 1100.0	 1	 716	 289.8; % COW
	10263	 101.425	 0.0	 85.0	 -85.0	 1.035	 121.0	 1	 169	 33.85; % COW
	10264	 232.7	 0.0	 215.0	 -215.0	 1.035	 489.0	 1	 325	 140.4; % NG
	10265	 238.7	 0.0	 215.0	 -215.0	 1.035	 496.0	 1	 337	 140.4; % NG
	10266	 61.4	 0.0	 61.0	 -61.0	 1.035	 72.0	 1	 121	 1.8; % PEL
	10267	 47.075	 0.0	 46.0	 -46.0	 1.035	 120.0	 1	 92	 2.15; % NG
	10268	 71.225	 0.0	 66.0	 -66.0	 1.035	 37.0	 1	 132	 10.45; % COW
	10269	 134.6	 0.0	 146.0	 -146.0	 1.035	 338.0	 1	 235	 34.2; % NG
	10270	 52.5	 0.0	 53.0	 -53.0	 1.035	 40.0	 1	 105	 0.0; % NG
	10271	 202.55	 0.0	 164.0	 -164.0	 1.035	 286.0	 1	 327	 78.1; % NG
	10272	 82.625	 0.0	 77.0	 -77.0	 1.035	 116.0	 1	 153	 12.25; % PEL
	10273	 294.9	 0.0	 254.0	 -254.0	 1.035	 321.0	 1	 507	 82.8; % NG
	10274	 100.3	 0.0	 113.0	 -113.0	 1.035	 317.0	 1	 170	 30.6; % NG
	10275	 53.9	 0.0	 55.0	 -55.0	 1.035	 125.0	 1	 97	 10.8; % NG
	10276	 120.325	 0.0	 94.0	 -94.0	 1.035	 189.0	 1	 187	 53.65; % NG
	10277	 181.15	 0.0	 161.0	 -161.0	 1.035	 225.0	 1	 322	 40.3; % COW
	10278	 215.4	 0.0	 183.0	 -183.0	 1.035	 233.0	 1	 366	 64.8; % COW
	10279	 136.9	 0.0	 105.0	 -105.0	 1.035	 233.0	 1	 209	 64.8; % NG
	10281	 19.725	 0.0	 30.0	 -30.0	 1.035	 20.0	 1	 38	 1.45; % NG
	10282	 176.575	 0.0	 162.0	 -162.0	 1.035	 357.0	 1	 324	 29.15; % COW
	10284	 574.575	 0.0	 470.0	 -470.0	 1.035	 919.0	 1	 940	 209.15; % COW
	10285	 70.0	 0.0	 78.0	 -78.0	 1.035	 132.0	 1	 140	 0.0; % NG
	10288	 54.225	 0.0	 49.0	 -49.0	 1.035	 63.0	 1	 98	 10.45; % NG
	10289	 80.675	 0.0	 81.0	 -81.0	 1.035	 41.0	 1	 161	 0.35; % PEL
	10290	 70.525	 0.0	 64.0	 -64.0	 1.035	 49.0	 1	 127	 14.05; % NG
	10291	 95.45	 0.0	 94.0	 -94.0	 1.035	 71.0	 1	 188	 2.9; % NG
	10292	 263.625	 0.0	 239.0	 -239.0	 1.035	 638.0	 1	 371	 156.25; % COW
	10293	 53.35	 0.0	 49.0	 -49.0	 1.035	 46.0	 1	 97	 9.7; % NG
	10294	 29.475	 0.0	 28.0	 -28.0	 1.035	 74.0	 1	 55	 3.95; % COW
	10295	 156.475	 0.0	 286.8	 -286.8	 1.035	 299.0	 1	 237	 75.95; % COW
	10296	 353.825	 0.0	 305.0	 -305.0	 1.035	 461.0	 1	 609	 98.65; % COW
	24	 149.5	 0.0	 122.0	 -122.0	 1.03	 235.3	 1	 244	 55.0; % NG
	25	 155.75	 0.0	 122.0	 -122.0	 1.03	 235.3	 1	 244	 67.5; % NG
	37	 244.0	 0.5	 185.0	 -184.0	 1.03	 426.0	 1	 368	 120.0; % NG
	37	 203.0	 21.0	 185.0	 -143.0	 1.03	 426.0	 1	 286	 120.0; % NG
	38	 404.5	 0.0	 345.0	 -345.0	 1.03	 426.0	 1	 689	 120.0; % NG
	38	 281.5	 0.0	 222.0	 -222.0	 1.03	 426.0	 1	 443	 120.0; % NG
	39	 231.5	 6.5	 185.0	 -172.0	 1.03	 426.0	 1	 343	 120.0; % NG
	40	 196.5	 24.0	 185.0	 -137.0	 1.0	 426.0	 1	 273	 120.0; % NG
	40	 234.0	 5.5	 185.0	 -174.0	 1.0	 426.0	 1	 348	 120.0; % NG
	40	 235.5	 4.5	 185.0	 -176.0	 1.0	 426.0	 1	 351	 120.0; % NG
	41	 250.0	 0.0	 190.0	 -190.0	 1.0	 426.0	 1	 380	 120.0; % NG
	41	 231.0	 7.0	 185.0	 -171.0	 1.0	 426.0	 1	 342	 120.0; % NG
	41	 322.5	 0.0	 263.0	 -263.0	 1.0	 426.0	 1	 525	 120.0; % NG
	57	 108.0	 13.5	 108.0	 -81.0	 1.03	 235.0	 1	 161	 55.0; % NG
	57	 209.75	 0.0	 179.0	 -179.0	 1.03	 235.0	 1	 357	 62.5; % NG
	58	 119.25	 1.9	 113.0	 -109.2	 1.03	 235.0	 1	 176	 62.5; % NG
	58	 0.0	 0.0	 113.0	 -33.0	 1.03	 235.0	 0	 30	 120.0; % NG
	58	 173.5	 0.0	 146.0	 -146.0	 1.03	 235.0	 1	 292	 55.0; % COW
	59	 153.0	 0.0	 126.0	 -126.0	 1.03	 235.0	 1	 251	 55.0; % NG
	60	 297.25	 17.0	 268.0	 -234.0	 1.0	 588.0	 1	 467	 127.5; % NG
	61	 228.5	 57.0	 280.0	 -166.0	 1.0	 588.0	 1	 332	 125.0; % COW
	70	 141.75	 0.0	 110.0	 -110.0	 1.03	 235.0	 1	 219	 64.5; % NG
	71	 201.75	 0.0	 170.0	 -170.0	 1.03	 235.0	 1	 339	 64.5; % NG
	71	 0.0	 0.0	 99.0	 -73.0	 1.03	 235.0	 0	 145	 64.5; % NG
	72	 0.0	 0.0	 171.0	 -171.0	 1.0	 235.0	 0	 341	 64.5; % NG
	72	 125.25	 6.0	 105.0	 -93.0	 1.0	 235.0	 1	 186	 64.5; % NG
	73	 150.25	 0.0	 118.0	 -118.0	 1.0	 235.0	 1	 236	 64.5; % NG
	73	 132.75	 2.0	 105.0	 -101.0	 1.0	 235.0	 1	 201	 64.5; % NG
	74	 102.0	 0.0	 102.0	 -102.0	 1.03	 120.0	 1	 204	 0.0; % NG
	94	 170.25	 0.0	 139.0	 -139.0	 1.03	 270.6	 1	 278	 62.5; % NG
	94	 162.5	 0.0	 128.0	 -128.0	 1.03	 270.6	 1	 255	 70.0; % NG
	95	 210.0	 0.0	 178.0	 -178.0	 1.03	 270.6	 1	 355	 65.0; % NG
	95	 134.75	 4.5	 113.0	 -104.0	 1.03	 270.6	 1	 207	 62.5; % NG
	95	 161.0	 0.0	 129.0	 -129.0	 1.03	 270.6	 1	 257	 65.0; % COW
	98	 315.0	 0.0	 260.0	 -260.0	 1.0	 426.0	 1	 520	 110.0; % NG
	98	 274.5	 0.0	 220.0	 -220.0	 1.0	 435.3	 1	 439	 110.0; % NG
	115	 31.5	 0.0	 32.0	 -32.0	 1.03	 12.0	 1	 63	 0.0; % NG
	115	 18.0	 0.0	 18.0	 -18.0	 1.03	 6.0	 1	 36	 0.0; % PEL
	121	 0.0	 0.0	 113.0	 -22.0	 1.03	 270.6	 0	 43	 120.0; % NG
	122	 273.0	 0.0	 243.0	 -243.0	 1.03	 270.6	 1	 486	 60.0; % NG
	123	 139.0	 0.0	 122.0	 -122.0	 1.03	 150.0	 1	 243	 35.0; % NG
	124	 100.0	 0.0	 83.0	 -83.0	 1.03	 150.0	 1	 165	 35.0; % NG
	134	 0.0	 0.0	 60.0	 -32.0	 1.03	 150.0	 0	 63	 35.0; % NG
	135	 93.0	 0.0	 76.0	 -76.0	 1.03	 150.0	 1	 151	 35.0; % NG
	136	 98.5	 0.0	 79.0	 -79.0	 1.03	 117.5	 1	 157	 40.0; % COW
	144	 122.75	 9.5	 108.0	 -89.0	 1.03	 270.6	 1	 178	 67.5; % NG
	145	 140.25	 0.5	 108.0	 -107.0	 1.03	 270.6	 1	 213	 67.5; % NG
	145	 153.75	 0.0	 120.0	 -120.0	 1.03	 270.6	 1	 240	 67.5; % NG
	146	 122.25	 12.0	 113.0	 -89.0	 1.0	 270.6	 1	 177	 67.5; % NG
	146	 226.75	 0.0	 193.0	 -193.0	 1.0	 270.6	 1	 386	 67.5; % NG
	152	 0.0	 0.0	 402.0	 -402.0	 1.03	 150.0	 0	 804	 -135.0; % COW
	152	 0.0	 0.0	 395.0	 -395.0	 1.03	 150.0	 0	 790	 -135.0; % COW
	153	 0.0	 0.0	 71.0	 -71.0	 1.03	 150.0	 0	 141	 -135.0; % COW
	153	 0.0	 0.0	 68.0	 -59.0	 1.03	 150.0	 0	 118	 -135.0; % NG
	154	 103.5	 0.0	 80.0	 -80.0	 1.03	 150.0	 1	 160	 47.0; % NG
	155	 131.0	 0.0	 108.0	 -108.0	 1.03	 150.0	 1	 215	 47.0; % NG
	155	 0.0	 0.0	 110.0	 -110.0	 1.03	 150.0	 0	 219	 47.0; % COW
	169	 0.0	 0.0	 51.0	 -51.0	 1.03	 51.4	 0	 102	 20.0; % COW
	170	 0.0	 0.0	 60.0	 -15.0	 1.03	 150.0	 0	 18	 80.0; % NG
	170	 0.0	 0.0	 90.0	 -90.0	 1.03	 51.4	 0	 179	 22.5; % NG
	172	 101.0	 20.0	 116.0	 -76.0	 1.03	 252.4	 1	 152	 50.0; % NG
	172	 0.0	 0.0	 103.0	 -75.0	 1.03	 237.5	 0	 150	 67.5; % NG
	173	 0.0	 0.0	 103.0	 -98.0	 1.03	 237.5	 0	 196	 67.5; % COW
	173	 0.0	 0.0	 102.0	 -15.0	 1.03	 252.4	 0	 23	 90.0; % NG
	174	 157.5	 0.0	 153.6	 -153.6	 1.0	 252.4	 1	 270	 45.0; % NG
	175	 113.5	 5.5	 102.0	 -91.0	 1.0	 252.4	 1	 182	 45.0; % COW
	175	 167.0	 0.0	 142.0	 -142.0	 1.0	 252.4	 1	 284	 50.0; % COW
	180	 109.5	 21.5	 127.0	 -84.0	 1.03	 287.3	 1	 167	 52.0; % NG
	180	 185.5	 0.0	 160.0	 -160.0	 1.03	 287.3	 1	 319	 52.0; % COW
	181	 135.5	 0.0	 106.0	 -106.0	 1.03	 238.4	 1	 211	 60.0; % NG
	181	 357.5	 0.0	 332.0	 -332.0	 1.03	 287.3	 1	 663	 52.0; % COW
	182	 103.5	 19.0	 118.0	 -80.0	 1.03	 263.9	 1	 160	 47.0; % NG
	182	 93.5	 24.0	 118.0	 -70.0	 1.03	 263.9	 1	 140	 47.0; % NG
	183	 105.5	 13.5	 103.0	 -76.0	 1.0	 238.4	 1	 151	 60.0; % NG
	183	 138.0	 0.0	 108.0	 -108.0	 1.0	 238.4	 1	 216	 60.0; % NG
	191	 227.5	 0.0	 190.0	 -190.0	 1.03	 233.2	 1	 380	 75.0; % NG
	192	 213.5	 0.0	 176.0	 -176.0	 1.03	 233.2	 1	 352	 75.0; % NG
	192	 0.0	 0.0	 100.0	 -50.0	 1.03	 233.2	 0	 99	 72.5; % NG
	192	 0.0	 0.0	 100.0	 -73.0	 1.03	 233.2	 0	 145	 72.5; % NG
	193	 362.0	 0.0	 310.0	 -310.0	 1.0	 464.0	 1	 620	 104.0; % COW
	208	 84.5	 9.8	 94.0	 -74.4	 1.03	 218.3	 1	 131	 38.0; % NG
	240	 -73.0	 14.0	 90.0	 -62.0	 1.0	 209.0	 1	 54	 -200.0; % NG
	240	 -72.0	 14.0	 90.0	 -62.0	 1.0	 209.0	 1	 56	 -200.0; % NG
	240	 0.0	 0.0	 90.0	 -90.0	 1.0	 209.0	 0	 116	 -200.0; % COW
	241	 -3.5	 0.0	 97.0	 -97.0	 1.0	 209.0	 1	 193	 -200.0; % NG
	244	 136.625	 0.0	 109.0	 -109.0	 1.03	 177.1	 1	 217	 56.25; % NG
	254	 37.25	 0.0	 33.6	 -33.6	 1.035	 78.8	 1	 63	 11.5; % NG
	254	 40.75	 0.0	 35.0	 -35.0	 1.035	 68.8	 1	 69	 12.5; % NG
	254	 40.25	 0.0	 34.0	 -34.0	 1.035	 68.8	 1	 68	 12.5; % NG
	254	 20.25	 0.0	 33.6	 -33.6	 1.035	 27.6	 1	 37	 3.5; % PEL
	267	 26.125	 0.0	 26.0	 -26.0	 1.035	 0.7	 1	 52	 0.25; % NG
	268	 63.125	 0.0	 63.0	 -63.0	 1.035	 0.7	 1	 126	 0.25; % PEL
	278	 0.0	 0.0	 52.0	 -52.0	 1.035	 10.3	 0	 103	 2.95; % COW
	279	 0.0	 0.0	 27.0	 -27.0	 1.035	 10.3	 0	 54	 2.95; % NG
	295	 56.75	 0.0	 57.0	 -57.0	 1.035	 5.0	 1	 113	 0.5; % NG
	295	 46.25	 0.0	 46.0	 -46.0	 1.035	 5.0	 1	 92	 0.5; % NG
	295	 46.75	 0.0	 47.0	 -47.0	 1.035	 5.0	 1	 93	 0.5; % NG
	295	 23.75	 0.0	 24.0	 -24.0	 1.035	 5.0	 1	 47	 0.5; % COW
	310	 239.5	 0.0	 304.8	 -304.8	 1.035	 426.0	 1	 359	 120.0; % NG
	316	 0.0	 0.0	 157.0	 -157.0	 1.035	 4.0	 0	 313	 0.5; % NG
	316	 0.0	 0.0	 8.0	 -8.0	 1.035	 4.0	 0	 16	 0.5; % NG
	376	 52.35	 0.0	 51.0	 -51.0	 1.035	 8.4	 1	 102	 2.7; % PEL
	379	 12.575	 0.0	 13.0	 -13.0	 1.035	 0.9	 1	 25	 0.15; % PEL
	379	 42.075	 0.0	 42.0	 -42.0	 1.035	 0.9	 1	 84	 0.15; % PEL
	379	 24.575	 0.0	 25.0	 -25.0	 1.035	 0.9	 1	 49	 0.15; % NG
	383	 26.25	 0.0	 24.0	 -24.0	 1.035	 31.3	 1	 47	 5.5; % NG
...
];

%% generator cost data
%	2	startup	shutdown	n	c(n-1)	...	c0
mpc.gencost = [
	2	 0.0	 0.0	 3	   0.000000	 198.860000	   0.000000; % NG
	2	 0.0	 0.0	 3	   0.000000	 240.260000	   0.000000; % COW
	2	 0.0	 0.0	 3	   0.000000	 240.260000	   0.000000; % NG
	2	 0.0	 0.0	 3	   0.000000	 240.260000	   0.000000; % NG
	2	 0.0	 0.0	 3	   0.000000	 240.260000	   0.000000; % COW
	2	 0.0	 0.0	 3	   0.000000	 240.260000	   0.000000; % COW
	2	 0.0	 0.0	 3	   0.000000	 240.260000	   0.000000; % COW
	2	 0.0	 0.0	 3	   0.000000	 240.260000	   0.000000; % COW
	2	 0.0	 0.0	 3	   0.000000	 240.260000	   0.000000; % COW
	2	 0.0	 0.0	 3	   0.000000	 240.260000	   0.000000; % NG
	2	 0.0	 0.0	 3	   0.000000	 240.260000	   0.000000; % COW
	2	 0.0	 0.0	 3	   0.000000	 240.260000	   0.000000; % COW
	2	 0.0	 0.0	 3	   0.000000	 240.260000	   0.000000; % NUC
	2	 0.0	 0.0	 3	   0.000000	 240.260000	   0.000000; % COW
	2	 0.0	 0.0	 3	   0.000000	 240.260000	   0.000000; % COW
	2	 0.0	 0.0	 3	   0.000000	 240.260000	   0.000000; % COW
	2	 0.0	 0.0	 3	   0.000000	 240.260000	   0.000000; % COW
	2	 0.0	 0.0	 3	   0.000000	 240.260000	   0.000000; % NG
	2	 0.0	 0.0	 3	   0.000000	 240.260000	   0.000000; % NG
	2	 0.0	 0.0	 3	   0.000000	 240.260000	   0.000000; % COW
	2	 0.0	 0.0	 3	   0.000000	 240.260000	   0.000000; % NG
	2	 0.0	 0.0	 3	   0.000000	 240.260000	   0.000000; % NG
	2	 0.0	 0.0	 3	   0.000000	 236.700000	   0.000000; % COW
	2	 0.0	 0.0	 3	   0.000000	 236.700000	   0.000000; % COW
	2	 0.0	 0.0	 3	   0.000000	 236.700000	   0.000000; % COW
	2	 0.0	 0.0	 3	   0.000000	 236.700000	   0.000000; % COW
	2	 0.0	 0.0	 3	   0.000000	 236.700000	   0.000000; % COW
	2	 0.0	 0.0	 3	   0.000000	 236.700000	   0.000000; % COW
	2	 0.0	 0.0	 3	   0.000000	 236.700000	   0.000000; % COW
	2	 0.0	 0.0	 3	   0.000000	 236.700000	   0.000000; % NG
	2	 0.0	 0.0	 3	   0.000000	 236.700000	   0.000000; % NG
	2	 0.0	 0.0	 3	   0.000000	 100.000000	   0.000000; % NG
	2	 0.0	 0.0	 3	   0.000000	 198.860000	   0.000000; % NG
	2	 0.0	 0.0	 3	   0.000000	 198.860000	   0.000000; % NG
	2	 0.0	 0.0	 3	   0.000000	 198.860000	   0.000000; % PEL
	2	 0.0	 0.0	 3	   0.000000	 198.860000	   0.000000; % PEL
	2	 0.0	 0.0	 3	   0.000000	 198.860000	   0.000000; % NG
	2	 0.0	 0.0	 3	   0.000000	 198.860000	   0.000000; % NG
	2	 0.0	 0.0	 3	   0.000000	 198.860000	   0.000000; % NG
	2	 0.0	 0.0	 3	   0.000000	 198.860000	   0.000000; % PEL
	2	 0.0	 0.0	 3	   0.000000	 198.860000	   0.000000; % NG
	2	 0.0	 0.0	 3	   0.000000	 198.860000	   0.000000; % NG
	2	 0.0	 0.0	 3	   0.000000	 198.860000	   0.000000; % NG
	2	 0.0	 0.0	 3	   0.000000	 198.860000	   0.000000; % PEL
	2	 0.0	 0.0	 3	   0.000000	 198.860000	   0.000000; % NG
	2	 0.0	 0.0	 3	   0.000000	 198.860000	   0.000000; % NG
	2	 0.0	 0.0	 3	   0.000000	 198.860000	   0.000000; % NG
	2	 0.0	 0.0	 3	   0.000000	 198.860000	   0.000000; % NG
	2	 0.0	 0.0	 3	   0.000000	 198.860000	   0.000000; % NG
	2	 0.0	 0.0	 3	   0.000000	 198.860000	   0.000000; % NG
	2	 0.0	 0.0	 3	   0.000000	 198.860000	   0.000000; % NG
	2	 0.0	 0.0	 3	   0.000000	 198.860000	   0.000000; % COW
	2	 0.0	 0.0	 3	   0.000000	 198.860000	   0.000000; % COW
	2	 0.0	 0.0	 3	   0.000000	 198.860000	   0.000000; % COW
	2	 0.0	 0.0	 3	   0.000000	 198.860000	   0.000000; % NG
	2	 0.0	 0.0	 3	   0.000000	 198.860000	   0.000000; % NG
	2	 0.0	 0.0	 3	   0.000000	 198.860000	   0.000000; % NG
	2	 0.0	 0.0	 3	   0.000000	 198.860000	   0.000000; % COW
	2	 0.0	 0.0	 3	   0.000000	 198.860000	   0.000000; % NG
	2	 0.0	 0.0	 3	   0.000000	 198.860000	   0.000000; % COW
	2	 0.0	 0.0	 3	   0.000000	 198.860000	   0.000000; % NG
	2	 0.0	 0.0	 3	   0.000000	 198.860000	   0.000000; % COW
	2	 0.0	 0.0	 3	   0.000000	 198.860000	   0.000000; % COW
	2	 0.0	 0.0	 3	   0.000000	 198.860000	   0.000000; % COW
	2	 0.0	 0.0	 3	   0.000000	 198.860000	   0.000000; % COW
	2	 0.0	 0.0	 3	   0.000000	 198.860000	   0.000000; % NG
	2	 0.0	 0.0	 3	   0.000000	 198.860000	   0.000000; % NG
	2	 0.0	 0.0	 3	   0.000000	 198.860000	   0.000000; % PEL
	2	 0.0	 0.0	 3	   0.000000	 198.860000	   0.000000; % NG
	2	 0.0	 0.0	 3	   0.000000	 198.860000	   0.000000; % COW
	2	 0.0	 0.0	 3	   0.000000	 198.860000	   0.000000; % NG
	2	 0.0	 0.0	 3	   0.000000	 198.860000	   0.000000; % NG
	2	 0.0	 0.0	 3	   0.000000	 198.860000	   0.000000; % NG
	2	 0.0	 0.0	 3	   0.000000	 198.860000	   0.000000; % PEL
	2	 0.0	 0.0	 3	   0.000000	 198.860000	   0.000000; % NG
	2	 0.0	 0.0	 3	   0.000000	 198.860000	   0.000000; % NG
	2	 0.0	 0.0	 3	   0.000000	 198.860000	   0.000000; % NG
	2	 0.0	 0.0	 3	   0.000000	 198.860000	   0.000000; % NG
	2	 0.0	 0.0	 3	   0.000000	 198.860000	   0.000000; % COW
	2	 0.0	 0.0	 3	   0.000000	 198.860000	   0.000000; % COW
	2	 0.0	 0.0	 3	   0.000000	 198.860000	   0.000000; % NG
	2	 0.0	 0.0	 3	   0.000000	 198.860000	   0.000000; % NG
	2	 0.0	 0.0	 3	   0.000000	 198.860000	   0.000000; % COW
	2	 0.0	 0.0	 3	   0.000000	 198.860000	   0.000000; % COW
	2	 0.0	 0.0	 3	   0.000000	 198.860000	   0.000000; % NG
	2	 0.0	 0.0	 3	   0.000000	 198.860000	   0.000000; % NG
	2	 0.0	 0.0	 3	   0.000000	 198.860000	   0.000000; % PEL
	2	 0.0	 0.0	 3	   0.000000	 198.860000	   0.000000; % NG
	2	 0.0	 0.0	 3	   0.000000	 198.860000	   0.000000; % NG
	2	 0.0	 0.0	 3	   0.000000	 198.860000	   0.000000; % COW
	2	 0.0	 0.0	 3	   0.000000	 198.860000	   0.000000; % NG
	2	 0.0	 0.0	 3	   0.000000	 198.860000	   0.000000; % COW
	2	 0.0	 0.0	 3	   0.000000	 198.860000	   0.000000; % COW
	2	 0.0	 0.0	 3	   0.000000	 198.860000	   0.000000; % COW
	2	 0.0	 0.0	 3	   0.000000	 158.610000	   0.000000; % NG
	2	 0.0	 0.0	 3	   0.000000	 158.610000	   0.000000; % NG
	2	 0.0	 0.0	 3	   0.000000	 107.030000	   0.000000; % NG
	2	 0.0	 0.0	 3	   0.000000	 107.030000	   0.000000; % NG
	2	 0.0	 0.0	 3	   0.000000	 107.030000	   0.000000; % NG
	2	 0.0	 0.0	 3	   0.000000	 107.030000	   0.000000; % NG
	2	 0.0	 0.0	 3	   0.000000	 107.030000	   0.000000; % NG
	2	 0.0	 0.0	 3	   0.000000	 107.030000	   0.000000; % NG
	2	 0.0	 0.0	 3	   0.000000	 107.030000	   0.000000; % NG
	2	 0.0	 0.0	 3	   0.000000	 107.030000	   0.000000; % NG
	2	 0.0	 0.0	 3	   0.000000	 107.030000	   0.000000; % NG
	2	 0.0	 0.0	 3	   0.000000	 107.030000	   0.000000; % NG
	2	 0.0	 0.0	 3	   0.000000	 107.030000	   0.000000; % NG
	2	 0.0	 0.0	 3	   0.000000	 143.520000	   0.000000; % NG
	2	 0.0	 0.0	 3	   0.000000	 143.520000	   0.000000; % NG
	2	 0.0	 0.0	 3	   0.000000	 143.520000	   0.000000; % NG
	2	 0.0	 0.0	 3	   0.000000	 143.520000	   0.000000; % NG
	2	 0.0	 0.0	 3	   0.000000	 143.520000	   0.000000; % COW
	2	 0.0	 0.0	 3	   0.000000	 143.520000	   0.000000; % NG
	2	 0.0	 0.0	 3	   0.000000	 143.520000	   0.000000; % NG
	2	 0.0	 0.0	 3	   0.000000	 143.520000	   0.000000; % COW
	2	 0.0	 0.0	 3	   0.000000	 148.160000	   0.000000; % NG
	2	 0.0	 0.0	 3	   0.000000	 148.160000	   0.000000; % NG
	2	 0.0	 0.0	 3	   0.000000	 148.160000	   0.000000; % NG
	2	 0.0	 0.0	 3	   0.000000	 148.160000	   0.000000; % NG
	2	 0.0	 0.0	 3	   0.000000	 148.160000	   0.000000; % NG
	2	 0.0	 0.0	 3	   0.000000	 148.160000	   0.000000; % NG
	2	 0.0	 0.0	 3	   0.000000	 148.160000	   0.000000; % NG
	2	 0.0	 0.0	 3	   0.000000	   0.000000	   0.000000; % NG
	2	 0.0	 0.0	 3	   0.000000	 134.040000	   0.000000; % NG
	2	 0.0	 0.0	 3	   0.000000	 134.040000	   0.000000; % NG
	2	 0.0	 0.0	 3	   0.000000	 134.040000	   0.000000; % NG
	2	 0.0	 0.0	 3	   0.000000	 134.040000	   0.000000; % NG
	2	 0.0	 0.0	 3	   0.000000	 134.040000	   0.000000; % COW
	2	 0.0	 0.0	 3	   0.000000	 126.620000	   0.000000; % NG
	2	 0.0	 0.0	 3	   0.000000	 126.620000	   0.000000; % NG
	2	 0.0	 0.0	 3	   0.000000	   0.000000	   0.000000; % NG
	2	 0.0	 0.0	 3	   0.000000	   0.000000	   0.000000; % PEL
	2	 0.0	 0.0	 3	   0.000000	 130.490000	   0.000000; % NG
	2	 0.0	 0.0	 3	   0.000000	 130.490000	   0.000000; % NG
	2	 0.0	 0.0	 3	   0.000000	 132.330000	   0.000000; % NG
	2	 0.0	 0.0	 3	   0.000000	 132.330000	   0.000000; % NG
	2	 0.0	 0.0	 3	   0.000000	 136.590000	   0.000000; % NG
	2	 0.0	 0.0	 3	   0.000000	 136.590000	   0.000000; % NG
	2	 0.0	 0.0	 3	   0.000000	 139.960000	   0.000000; % COW
	2	 0.0	 0.0	 3	   0.000000	 128.210000	   0.000000; % NG
	2	 0.0	 0.0	 3	   0.000000	 128.210000	   0.000000; % NG
	2	 0.0	 0.0	 3	   0.000000	 128.210000	   0.000000; % NG
	2	 0.0	 0.0	 3	   0.000000	 128.210000	   0.000000; % NG
	2	 0.0	 0.0	 3	   0.000000	 128.210000	   0.000000; % NG
	2	 0.0	 0.0	 3	   0.000000	 137.400000	   0.000000; % COW
	2	 0.0	 0.0	 3	   0.000000	 137.400000	   0.000000; % COW
	2	 0.0	 0.0	 3	   0.000000	 137.400000	   0.000000; % COW
	2	 0.0	 0.0	 3	   0.000000	 137.400000	   0.000000; % NG
	2	 0.0	 0.0	 3	   0.000000	 129.990000	   0.000000; % NG
	2	 0.0	 0.0	 3	   0.000000	 129.990000	   0.000000; % NG
	2	 0.0	 0.0	 3	   0.000000	 129.990000	   0.000000; % COW
	2	 0.0	 0.0	 3	   0.000000	 135.600000	   0.000000; % COW
	2	 0.0	 0.0	 3	   0.000000	 135.600000	   0.000000; % NG
	2	 0.0	 0.0	 3	   0.000000	 135.600000	   0.000000; % NG
	2	 0.0	 0.0	 3	   0.000000	 163.160000	   0.000000; % NG
	2	 0.0	 0.0	 3	   0.000000	 163.160000	   0.000000; % NG
	2	 0.0	 0.0	 3	   0.000000	 163.160000	   0.000000; % COW
	2	 0.0	 0.0	 3	   0.000000	 163.160000	   0.000000; % NG
	2	 0.0	 0.0	 3	   0.000000	 163.160000	   0.000000; % NG
	2	 0.0	 0.0	 3	   0.000000	 163.160000	   0.000000; % COW
	2	 0.0	 0.0	 3	   0.000000	 163.160000	   0.000000; % COW
	2	 0.0	 0.0	 3	   0.000000	 139.010000	   0.000000; % NG
	2	 0.0	 0.0	 3	   0.000000	 139.010000	   0.000000; % COW
	2	 0.0	 0.0	 3	   0.000000	 139.010000	   0.000000; % NG
	2	 0.0	 0.0	 3	   0.000000	 139.010000	   0.000000; % COW
	2	 0.0	 0.0	 3	   0.000000	 139.010000	   0.000000; % NG
	2	 0.0	 0.0	 3	   0.000000	 139.010000	   0.000000; % NG
	2	 0.0	 0.0	 3	   0.000000	 139.010000	   0.000000; % NG
	2	 0.0	 0.0	 3	   0.000000	 139.010000	   0.000000; % NG
	2	 0.0	 0.0	 3	   0.000000	 125.480000	   0.000000; % NG
	2	 0.0	 0.0	 3	   0.000000	 125.480000	   0.000000; % NG
	2	 0.0	 0.0	 3	   0.000000	 125.480000	   0.000000; % NG
	2	 0.0	 0.0	 3	   0.000000	 125.480000	   0.000000; % NG
	2	 0.0	 0.0	 3	   0.000000	 125.480000	   0.000000; % COW
	2	 0.0	 0.0	 3	   0.000000	 137.400000	   0.000000; % NG
	2	 0.0	 0.0	 3	   0.000000	 137.400000	   0.000000; % NG
	2	 0.0	 0.0	 3	   0.000000	 137.400000	   0.000000; % NG
	2	 0.0	 0.0	 3	   0.000000	 137.400000	   0.000000; % COW
	2	 0.0	 0.0	 3	   0.000000	 137.400000	   0.000000; % NG
	2	 0.0	 0.0	 3	   0.000000	   0.000000	   0.000000; % NG
	2	 0.0	 0.0	 3	   0.000000	   0.000000	   0.000000; % NG
	2	 0.0	 0.0	 3	   0.000000	   0.000000	   0.000000; % NG
	2	 0.0	 0.0	 3	   0.000000	   0.000000	   0.000000; % NG
	2	 0.0	 0.0	 3	   0.000000	   0.000000	   0.000000; % PEL
	2	 0.0	 0.0	 3	   0.000000	   0.000000	   0.000000; % NG
	2	 0.0	 0.0	 3	   0.000000	   0.000000	   0.000000; % PEL
	2	 0.0	 0.0	 3	   0.000000	   0.000000	   0.000000; % COW
	2	 0.0	 0.0	 3	   0.000000	   0.000000	   0.000000; % NG
	2	 0.0	 0.0	 3	   0.000000	   0.000000	   0.000000; % NG
	2	 0.0	 0.0	 3	   0.000000	   0.000000	   0.000000; % NG
	2	 0.0	 0.0	 3	   0.000000	   0.000000	   0.000000; % NG
	2	 0.0	 0.0	 3	   0.000000	   0.000000	   0.000000; % COW
	2	 0.0	 0.0	 3	   0.000000	 107.030000	   0.000000; % NG
	2	 0.0	 0.0	 3	   0.000000	   0.000000	   0.000000; % NG
	2	 0.0	 0.0	 3	   0.000000	   0.000000	   0.000000; % NG
	2	 0.0	 0.0	 3	   0.000000	   0.000000	   0.000000; % PEL
	2	 0.0	 0.0	 3	   0.000000	   0.000000	   0.000000; % PEL
	2	 0.0	 0.0	 3	   0.000000	   0.000000	   0.000000; % PEL
	2	 0.0	 0.0	 3	   0.000000	   0.000000	   0.000000; % NG
	2	 0.0	 0.0	 3	   0.000000	   0.000000	   0.000000; % NG
...
];

%% branch data
%	fbus	tbus	r	x	b	rateA	rateB	rateC	ratio	angle	status	angmin	angmax
mpc.branch = [
	10330	 10331	 1e-05	 8e-05	 0.0	 183.0	 183.0	 183.0	 0.0	 0.0	 1	 -30.0	 30.0;
	10300	 10355	 0.05932	 0.20245	 0.0	 122.0	 122.0	 122.0	 0.0	 0.0	 1	 -30.0	 30.0;
	10300	 10360	 0.02058	 0.05185	 0.0	 106.0	 106.0	 106.0	 0.0	 0.0	 1	 -30.0	 30.0;
	10367	 10201	 2e-05	 -0.04958	 0.0	 659.0	 659.0	 659.0	 0.999	 0.0	 1	 -30.0	 30.0;
	10367	 10202	 6e-05	 0.08346	 0.0	 391.0	 391.0	 391.0	 0.99999	 0.0	 1	 -30.0	 30.0;
	10366	 10367	 0.0026	 0.25917	 0.0	 127.0	 127.0	 127.0	 0.99999	 0.0	 1	 -30.0	 30.0;
	10368	 10215	 2e-05	 -0.04961	 0.0	 659.0	 659.0	 659.0	 0.999	 0.0	 1	 -30.0	 30.0;
	10368	 10216	 6e-05	 0.08373	 0.0	 390.0	 390.0	 390.0	 0.99999	 0.0	 1	 -30.0	 30.0;
	10369	 10368	 0.0026	 0.26125	 0.0	 126.0	 126.0	 126.0	 0.99999	 0.0	 1	 -30.0	 30.0;
	10090	 10083	 8e-05	 0.00079	 0.41456	 736.0	 736.0	 736.0	 0.0	 0.0	 1	 -30.0	 30.0;
	10138	 10164	 0.00168	 0.01733	 0.75504	 752.0	 752.0	 752.0	 0.0	 0.0	 1	 -30.0	 30.0;
	10139	 10109	 0.00071	 0.00594	 0.27872	 680.0	 680.0	 680.0	 0.0	 0.0	 1	 -30.0	 30.0;
	10139	 10144	 0.00075	 0.00681	 0.312	 707.0	 707.0	 707.0	 0.0	 0.0	 1	 -30.0	 30.0;
	10139	 10153	 0.00194	 0.02	 0.8336	 751.0	 751.0	 751.0	 0.0	 0.0	 1	 -30.0	 30.0;
	10140	 10110	 0.00071	 0.00594	 0.27872	 680.0	 680.0	 680.0	 0.0	 0.0	 1	 -30.0	 30.0;
	10140	 10143	 0.00075	 0.00681	 0.312	 707.0	 707.0	 707.0	 0.0	 0.0	 1	 -30.0	 30.0;
	10140	 10153	 0.00194	 0.02	 0.8336	 751.0	 751.0	 751.0	 0.0	 0.0	 1	 -30.0	 30.0;
	10141	 10153	 0.00233	 0.01696	 0.70784	 637.0	 637.0	 637.0	 0.0	 0.0	 1	 -30.0	 30.0;
	10090	 10085	 0.00017	 0.00148	 1.23008	 693.0	 693.0	 693.0	 0.0	 0.0	 1	 -30.0	 30.0;
	10141	 10158	 0.00204	 0.01707	 0.71344	 680.0	 680.0	 680.0	 0.0	 0.0	 1	 -30.0	 30.0;
	10141	 10158	 0.00204	 0.01707	 0.71344	 680.0	 680.0	 680.0	 0.0	 0.0	 1	 -30.0	 30.0;
	10143	 10144	 1e-05	 6e-05	 0.0	 581.0	 581.0	 581.0	 0.0	 0.0	 1	 -30.0	 30.0;
	10143	 10153	 0.00169	 0.01381	 0.6496	 673.0	 673.0	 673.0	 0.0	 0.0	 1	 -30.0	 30.0;
	10143	 10156	 0.00119	 0.00969	 0.4544	 672.0	 672.0	 672.0	 0.0	 0.0	 1	 -30.0	 30.0;
	10144	 10126	 0.00306	 0.02537	 1.19168	 677.0	 677.0	 677.0	 0.0	 0.0	 1	 -30.0	 30.0;
	10144	 10153	 0.00169	 0.01381	 0.6496	 673.0	 673.0	 673.0	 0.0	 0.0	 1	 -30.0	 30.0;
	10144	 10165	 0.00244	 0.02044	 0.9584	 681.0	 681.0	 681.0	 0.0	 0.0	 1	 -30.0	 30.0;
	10091	 10090	 9e-05	 0.00106	 1.10432	 801.0	 801.0	 801.0	 0.0	 0.0	 1	 -30.0	 30.0;
	10145	 10147	 0.00194	 0.01606	 0.75456	 677.0	 677.0	 677.0	 0.0	 0.0	 1	 -30.0	 30.0;
	10145	 10158	 0.00189	 0.01232	 0.61088	 604.0	 604.0	 604.0	 0.0	 0.0	 1	 -30.0	 30.0;
	10171	 10094	 0.0	 6e-05	 0.0	 479684.0	 479684.0	 479684.0	 0.0	 0.0	 1	 -30.0	 30.0;
	10145	 10082	 0.00091	 0.00923	 0.39197	 746.0	 746.0	 746.0	 0.0	 0.0	 1	 -30.0	 30.0;
	10145	 10082	 0.00091	 0.00923	 0.39197	 746.0	 746.0	 746.0	 0.0	 0.0	 1	 -30.0	 30.0;
	10146	 10154	 0.00503	 0.01845	 0.05812	 253.0	 253.0	 253.0	 0.0	 0.0	 1	 -30.0	 30.0;
	10172	 10095	 0.0	 6e-05	 0.0	 479684.0	 479684.0	 479684.0	 0.0	 0.0	 1	 -30.0	 30.0;
	10147	 10153	 0.00156	 0.01288	 0.6032	 676.0	 676.0	 676.0	 0.0	 0.0	 1	 -30.0	 30.0;
	10173	 10095	 0.0	 6e-05	 0.0	 479684.0	 479684.0	 479684.0	 0.0	 0.0	 1	 -30.0	 30.0;
	10147	 10153	 0.00156	 0.01288	 0.6032	 676.0	 676.0	 676.0	 0.0	 0.0	 1	 -30.0	 30.0;
	10174	 10096	 2e-05	 0.00016	 0.0008	 666.0	 666.0	 666.0	 0.0	 0.0	 1	 -30.0	 30.0;
	10147	 10161	 0.00113	 0.00962	 0.4528	 686.0	 686.0	 686.0	 0.0	 0.0	 1	 -30.0	 30.0;
	10176	 10098	 0.00029	 0.00219	 0.11056	 648.0	 648.0	 648.0	 0.0	 0.0	 1	 -30.0	 30.0;
	10177	 10098	 0.00029	 0.00219	 0.11056	 648.0	 648.0	 648.0	 0.0	 0.0	 1	 -30.0	 30.0;
	10147	 10169	 0.00041	 0.00423	 0.18496	 752.0	 752.0	 752.0	 0.0	 0.0	 1	 -30.0	 30.0;
	10147	 10170	 0.00041	 0.00423	 0.18496	 752.0	 752.0	 752.0	 0.0	 0.0	 1	 -30.0	 30.0;
	10091	 10090	 9e-05	 0.00106	 1.10432	 801.0	 801.0	 801.0	 0.0	 0.0	 1	 -30.0	 30.0;
	10147	 10037	 0.00105	 0.00925	 0.37437	 697.0	 697.0	 697.0	 0.0	 0.0	 1	 -30.0	 30.0;
	10147	 10037	 0.00105	 0.00925	 0.37437	 697.0	 697.0	 697.0	 0.0	 0.0	 1	 -30.0	 30.0;
	10148	 10136	 0.00293	 0.01074	 0.03436	 253.0	 253.0	 253.0	 0.0	 0.0	 1	 -30.0	 30.0;
	10148	 10149	 2e-05	 0.0001	 0.0	 293.0	 293.0	 293.0	 0.0	 0.0	 1	 -30.0	 30.0;
	10149	 10136	 0.00293	 0.01074	 0.03436	 253.0	 253.0	 253.0	 0.0	 0.0	 1	 -30.0	 30.0;
	10149	 10162	 0.01595	 0.06457	 0.17037	 265.0	 265.0	 265.0	 0.0	 0.0	 1	 -30.0	 30.0;
	10151	 10147	 0.00188	 0.01925	 0.8432	 749.0	 749.0	 749.0	 0.0	 0.0	 1	 -30.0	 30.0;
	10152	 10164	 0.00364	 0.03742	 1.6384	 750.0	 750.0	 750.0	 0.0	 0.0	 1	 -30.0	 30.0;
	10156	 10165	 0.00131	 0.011	 0.5168	 681.0	 681.0	 681.0	 0.0	 0.0	 1	 -30.0	 30.0;
	10158	 10081	 0.00127	 0.0132	 0.5505	 754.0	 754.0	 754.0	 0.0	 0.0	 1	 -30.0	 30.0;
	10091	 10164	 0.0023	 0.02084	 0.8752	 707.0	 707.0	 707.0	 0.0	 0.0	 1	 -30.0	 30.0;
	10159	 10163	 0.00517	 0.03967	 0.12439	 359.0	 359.0	 359.0	 0.0	 0.0	 1	 -30.0	 30.0;
	10159	 10163	 0.00517	 0.03967	 0.12439	 359.0	 359.0	 359.0	 0.0	 0.0	 1	 -30.0	 30.0;
	10160	 10137	 0.0099	 0.03659	 0.11674	 254.0	 254.0	 254.0	 0.0	 0.0	 1	 -30.0	 30.0;
	10161	 10145	 0.00088	 0.007	 0.3296	 664.0	 664.0	 664.0	 0.0	 0.0	 1	 -30.0	 30.0;
	10162	 10122	 0.00527	 0.0193	 0.06156	 253.0	 253.0	 253.0	 0.0	 0.0	 1	 -30.0	 30.0;
	10162	 10122	 0.00527	 0.0193	 0.06156	 253.0	 253.0	 253.0	 0.0	 0.0	 1	 -30.0	 30.0;
	10164	 10165	 0.00323	 0.03369	 1.40518	 756.0	 756.0	 756.0	 0.0	 0.0	 1	 -30.0	 30.0;
	10164	 10080	 6e-05	 0.00059	 0.02467	 735.0	 735.0	 735.0	 0.0	 0.0	 1	 -30.0	 30.0;
	10092	 10089	 0.00046	 0.00474	 0.01943	 413.0	 413.0	 413.0	 0.0	 0.0	 1	 -30.0	 30.0;
	10164	 10080	 6e-05	 0.00059	 0.02467	 735.0	 735.0	 735.0	 0.0	 0.0	 1	 -30.0	 30.0;
	10165	 10091	 0.00067	 0.00696	 0.2904	 754.0	 754.0	 754.0	 0.0	 0.0	 1	 -30.0	 30.0;
	10167	 10169	 8e-05	 0.00067	 0.02976	 681.0	 681.0	 681.0	 0.0	 0.0	 1	 -30.0	 30.0;
	10168	 10170	 8e-05	 0.00067	 0.02976	 681.0	 681.0	 681.0	 0.0	 0.0	 1	 -30.0	 30.0;
	10310	 10311	 8e-05	 0.00041	 0.0	 148.0	 148.0	 148.0	 0.0	 0.0	 1	 -30.0	 30.0;
	10330	 10359	 0.01322	 0.04793	 0.0092	 250.0	 250.0	 250.0	 0.0	 0.0	 1	 -30.0	 30.0;
	10331	 10359	 0.01322	 0.04793	 0.0092	 250.0	 250.0	 250.0	 0.0	 0.0	 1	 -30.0	 30.0;
	10092	 10157	 0.00627	 0.02339	 0.07357	 255.0	 255.0	 255.0	 0.0	 0.0	 1	 -30.0	 30.0;
	10346	 10347	 8e-05	 0.00041	 0.0	 148.0	 148.0	 148.0	 0.0	 0.0	 1	 -30.0	 30.0;
	10359	 10310	 0.02975	 0.10992	 0.0219	 127.0	 127.0	 127.0	 0.0	 0.0	 1	 -30.0	 30.0;
	10359	 10311	 0.02975	 0.10992	 0.0219	 127.0	 127.0	 127.0	 0.0	 0.0	 1	 -30.0	 30.0;
	10359	 10346	 0.01157	 0.04298	 0.00859	 127.0	 127.0	 127.0	 0.0	 0.0	 1	 -30.0	 30.0;
	10359	 10347	 0.01157	 0.04298	 0.00859	 127.0	 127.0	 127.0	 0.0	 0.0	 1	 -30.0	 30.0;
	10301	 10319	 0.01298	 0.09959	 0.01949	 180.0	 180.0	 180.0	 0.0	 0.0	 1	 -30.0	 30.0;
	10301	 10319	 0.01298	 0.09959	 0.01949	 180.0	 180.0	 180.0	 0.0	 0.0	 1	 -30.0	 30.0;
	10301	 10327	 0.03223	 0.16033	 0.03037	 146.0	 146.0	 146.0	 0.0	 0.0	 1	 -30.0	 30.0;
	10093	 10088	 0.00046	 0.00474	 0.01943	 413.0	 413.0	 413.0	 0.0	 0.0	 1	 -30.0	 30.0;
	10301	 10327	 0.03223	 0.16033	 0.03037	 146.0	 146.0	 146.0	 0.0	 0.0	 1	 -30.0	 30.0;
	10313	 10314	 1e-05	 0.00041	 0.0	 400.0	 400.0	 400.0	 0.0	 0.0	 1	 -30.0	 30.0;
	10315	 10316	 1e-05	 0.00041	 0.0	 400.0	 400.0	 400.0	 0.0	 0.0	 1	 -30.0	 30.0;
	10315	 10317	 1e-05	 0.00041	 0.0	 400.0	 400.0	 400.0	 0.0	 0.0	 1	 -30.0	 30.0;
	10339	 10313	 0.00012	 0.00118	 0.00028	 202.0	 202.0	 202.0	 0.0	 0.0	 1	 -30.0	 30.0;
	10339	 10340	 1e-05	 0.00041	 0.0	 400.0	 400.0	 400.0	 0.0	 0.0	 1	 -30.0	 30.0;
	10340	 10314	 7e-05	 0.00066	 0.00016	 198.0	 198.0	 198.0	 0.0	 0.0	 1	 -30.0	 30.0;
	10354	 10353	 1e-05	 0.00041	 0.0	 400.0	 400.0	 400.0	 0.0	 0.0	 1	 -30.0	 30.0;
	10303	 10304	 8e-05	 0.00041	 0.0	 148.0	 148.0	 148.0	 0.0	 0.0	 1	 -30.0	 30.0;
	10093	 10157	 0.0064	 0.02314	 0.07299	 251.0	 251.0	 251.0	 0.0	 0.0	 1	 -30.0	 30.0;
	10322	 10323	 8e-05	 0.00041	 0.0	 148.0	 148.0	 148.0	 0.0	 0.0	 1	 -30.0	 30.0;
	10099	 10115	 0.00014	 0.00127	 0.0568	 707.0	 707.0	 707.0	 0.0	 0.0	 1	 -30.0	 30.0;
	10084	 10087	 7e-05	 0.00077	 0.4808	 775.0	 775.0	 775.0	 0.0	 0.0	 1	 -30.0	 30.0;
	10099	 10116	 0.00014	 0.00127	 0.0568	 707.0	 707.0	 707.0	 0.0	 0.0	 1	 -30.0	 30.0;
	10099	 10145	 0.00091	 0.00842	 0.37584	 714.0	 714.0	 714.0	 0.0	 0.0	 1	 -30.0	 30.0;
	10099	 10145	 0.00091	 0.00842	 0.37584	 714.0	 714.0	 714.0	 0.0	 0.0	 1	 -30.0	 30.0;
	10099	 10158	 0.00115	 0.01064	 0.47546	 714.0	 714.0	 714.0	 0.0	 0.0	 1	 -30.0	 30.0;
	10099	 10158	 0.00115	 0.01064	 0.47546	 714.0	 714.0	 714.0	 0.0	 0.0	 1	 -30.0	 30.0;
	10099	 10079	 0.00206	 0.01905	 0.85158	 714.0	 714.0	 714.0	 0.0	 0.0	 1	 -30.0	 30.0;
	10099	 10079	 0.00206	 0.01905	 0.85158	 714.0	 714.0	 714.0	 0.0	 0.0	 1	 -30.0	 30.0;
	10100	 10118	 0.00034	 0.00354	 0.1544	 755.0	 755.0	 755.0	 0.0	 0.0	 1	 -30.0	 30.0;
	10100	 10118	 0.00034	 0.00354	 0.1544	 755.0	 755.0	 755.0	 0.0	 0.0	 1	 -30.0	 30.0;
	10100	 10151	 0.00075	 0.00744	 0.3264	 738.0	 738.0	 738.0	 0.0	 0.0	 1	 -30.0	 30.0;
	10084	 10087	 7e-05	 0.00076	 0.51264	 770.0	 770.0	 770.0	 0.0	 0.0	 1	 -30.0	 30.0;
	10100	 10151	 0.00075	 0.00744	 0.3264	 738.0	 738.0	 738.0	 0.0	 0.0	 1	 -30.0	 30.0;
	10100	 10153	 0.00144	 0.01506	 0.6592	 757.0	 757.0	 757.0	 0.0	 0.0	 1	 -30.0	 30.0;
	10100	 10153	 0.00144	 0.01506	 0.6592	 757.0	 757.0	 757.0	 0.0	 0.0	 1	 -30.0	 30.0;
	10101	 10135	 0.01399	 0.05116	 0.16408	 252.0	 252.0	 252.0	 0.0	 0.0	 1	 -30.0	 30.0;
	10101	 10137	 0.0049	 0.01791	 0.0574	 252.0	 252.0	 252.0	 0.0	 0.0	 1	 -30.0	 30.0;
	10102	 10166	 0.00909	 0.03285	 0.10503	 251.0	 251.0	 251.0	 0.0	 0.0	 1	 -30.0	 30.0;
	10102	 10166	 0.00909	 0.03285	 0.10503	 251.0	 251.0	 251.0	 0.0	 0.0	 1	 -30.0	 30.0;
	10103	 10104	 0.00125	 0.00625	 0.0	 532.0	 532.0	 532.0	 0.0	 0.0	 1	 -30.0	 30.0;
	10103	 10120	 0.00061	 0.00564	 0.252	 713.0	 713.0	 713.0	 0.0	 0.0	 1	 -30.0	 30.0;
	10103	 10120	 0.00061	 0.00564	 0.252	 713.0	 713.0	 713.0	 0.0	 0.0	 1	 -30.0	 30.0;
	10085	 10084	 8e-05	 0.00095	 0.58816	 804.0	 804.0	 804.0	 0.0	 0.0	 1	 -30.0	 30.0;
	10103	 10150	 0.00013	 0.00119	 0.05328	 710.0	 710.0	 710.0	 0.0	 0.0	 1	 -30.0	 30.0;
	10105	 10148	 0.00492	 0.01798	 0.05731	 252.0	 252.0	 252.0	 0.0	 0.0	 1	 -30.0	 30.0;
	10105	 10149	 0.00492	 0.01798	 0.05731	 252.0	 252.0	 252.0	 0.0	 0.0	 1	 -30.0	 30.0;
	10106	 10147	 0.00131	 0.01339	 0.58672	 748.0	 748.0	 748.0	 0.0	 0.0	 1	 -30.0	 30.0;
	10106	 10151	 0.00056	 0.00584	 0.25616	 756.0	 756.0	 756.0	 0.0	 0.0	 1	 -30.0	 30.0;
	10107	 10109	 0.00014	 0.00127	 0.0568	 707.0	 707.0	 707.0	 0.0	 0.0	 1	 -30.0	 30.0;
	10108	 10110	 0.00014	 0.00127	 0.0568	 707.0	 707.0	 707.0	 0.0	 0.0	 1	 -30.0	 30.0;
	10111	 10158	 0.00118	 0.01186	 0.50192	 742.0	 742.0	 742.0	 0.0	 0.0	 1	 -30.0	 30.0;
	10111	 10081	 0.00051	 0.00528	 0.22019	 753.0	 753.0	 753.0	 0.0	 0.0	 1	 -30.0	 30.0;
	10112	 10159	 0.00153	 0.00561	 0.01801	 253.0	 253.0	 253.0	 0.0	 0.0	 1	 -30.0	 30.0;
	10085	 10086	 0.0	 6e-05	 0.0	 479684.0	 479684.0	 479684.0	 0.0	 0.0	 1	 -30.0	 30.0;
	10112	 10159	 0.00109	 0.004	 0.01284	 253.0	 253.0	 253.0	 0.0	 0.0	 1	 -30.0	 30.0;
	10112	 10159	 0.00109	 0.004	 0.01284	 253.0	 253.0	 253.0	 0.0	 0.0	 1	 -30.0	 30.0;
	10113	 10141	 0.00031	 0.00286	 0.12781	 713.0	 713.0	 713.0	 0.0	 0.0	 1	 -30.0	 30.0;
	10113	 10153	 0.00037	 0.00343	 0.15334	 714.0	 714.0	 714.0	 0.0	 0.0	 1	 -30.0	 30.0;
	10114	 10127	 0.01116	 0.04091	 0.13068	 253.0	 253.0	 253.0	 0.0	 0.0	 1	 -30.0	 30.0;
	10183	 10198	 0.00084	 0.01065	 0.39616	 829.0	 829.0	 829.0	 0.0	 0.0	 1	 -30.0	 30.0;
	10183	 10217	 0.00146	 0.01809	 0.63888	 820.0	 820.0	 820.0	 0.0	 0.0	 1	 -30.0	 30.0;
	10184	 10199	 0.01019	 0.06849	 0.1012	 337.0	 337.0	 337.0	 0.0	 0.0	 1	 -30.0	 30.0;
	10184	 10209	 0.01204	 0.06105	 0.08659	 295.0	 295.0	 295.0	 0.0	 0.0	 1	 -30.0	 30.0;
	10184	 10216	 0.01029	 0.0401	 0.10522	 260.0	 260.0	 260.0	 0.0	 0.0	 1	 -30.0	 30.0;
	10185	 10205	 0.00065	 0.00657	 0.2224	 744.0	 744.0	 744.0	 0.0	 0.0	 1	 -30.0	 30.0;
	10186	 10199	 0.00155	 0.01508	 0.02396	 402.0	 402.0	 402.0	 0.0	 0.0	 1	 -30.0	 30.0;
	10187	 10200	 0.00156	 0.01518	 0.02415	 402.0	 402.0	 402.0	 0.0	 0.0	 1	 -30.0	 30.0;
	10188	 10183	 0.00057	 0.00724	 0.26592	 830.0	 830.0	 830.0	 0.0	 0.0	 1	 -30.0	 30.0;
	10189	 10198	 0.00028	 0.00346	 0.1312	 819.0	 819.0	 819.0	 0.0	 0.0	 1	 -30.0	 30.0;
	10192	 10193	 0.0	 0.0001	 0.0	 321643.0	 321643.0	 321643.0	 0.0	 0.0	 1	 -30.0	 30.0;
	10192	 10222	 0.00488	 0.0332	 0.05542	 339.0	 339.0	 339.0	 0.0	 0.0	 1	 -30.0	 30.0;
	10196	 10208	 0.00059	 0.00752	 0.26672	 831.0	 831.0	 831.0	 0.0	 0.0	 1	 -30.0	 30.0;
	10197	 10215	 0.00092	 0.01193	 0.47104	 838.0	 838.0	 838.0	 0.0	 0.0	 1	 -30.0	 30.0;
	10198	 10208	 0.00081	 0.00867	 0.27808	 765.0	 765.0	 765.0	 0.0	 0.0	 1	 -30.0	 30.0;
	10199	 10200	 0.0	 0.0001	 0.0	 321643.0	 321643.0	 321643.0	 0.0	 0.0	 1	 -30.0	 30.0;
	10199	 10211	 0.00752	 0.04678	 0.06534	 325.0	 325.0	 325.0	 0.0	 0.0	 1	 -30.0	 30.0;
	10201	 10213	 0.00112	 0.01179	 0.35472	 759.0	 759.0	 759.0	 0.0	 0.0	 1	 -30.0	 30.0;
	10201	 10220	 0.00156	 0.01658	 0.4112	 762.0	 762.0	 762.0	 0.0	 0.0	 1	 -30.0	 30.0;
	10202	 10193	 0.01	 0.06793	 0.1134	 339.0	 339.0	 339.0	 0.0	 0.0	 1	 -30.0	 30.0;
	10202	 10203	 0.0	 0.0001	 0.0	 321643.0	 321643.0	 321643.0	 0.0	 0.0	 1	 -30.0	 30.0;
	10202	 10206	 0.03436	 0.16971	 0.24563	 186.0	 186.0	 186.0	 0.0	 0.0	 1	 -30.0	 30.0;
	10202	 10222	 0.00595	 0.04035	 0.06732	 339.0	 339.0	 339.0	 0.0	 0.0	 1	 -30.0	 30.0;
	10204	 10210	 0.00214	 0.02232	 0.71616	 756.0	 756.0	 756.0	 0.0	 0.0	 1	 -30.0	 30.0;
	10205	 10213	 0.00154	 0.01628	 0.52272	 761.0	 761.0	 761.0	 0.0	 0.0	 1	 -30.0	 30.0;
	10205	 10215	 0.00078	 0.00855	 0.2736	 774.0	 774.0	 774.0	 0.0	 0.0	 1	 -30.0	 30.0;
	10205	 10217	 0.00108	 0.01152	 0.352	 764.0	 764.0	 764.0	 0.0	 0.0	 1	 -30.0	 30.0;
	10206	 10216	 0.01105	 0.05364	 0.07957	 289.0	 289.0	 289.0	 0.0	 0.0	 1	 -30.0	 30.0;
	10207	 10210	 0.00185	 0.01772	 0.57632	 726.0	 726.0	 726.0	 0.0	 0.0	 1	 -30.0	 30.0;
	10207	 10220	 0.00156	 0.01757	 0.552	 784.0	 784.0	 784.0	 0.0	 0.0	 1	 -30.0	 30.0;
	10208	 10214	 0.00058	 0.0082	 0.28864	 874.0	 874.0	 874.0	 0.0	 0.0	 1	 -30.0	 30.0;
	10212	 10216	 0.00504	 0.0312	 0.05087	 324.0	 324.0	 324.0	 0.0	 0.0	 1	 -30.0	 30.0;
	10212	 10216	 0.00504	 0.0312	 0.05087	 324.0	 324.0	 324.0	 0.0	 0.0	 1	 -30.0	 30.0;
	10215	 10217	 0.00033	 0.00346	 0.1112	 758.0	 758.0	 758.0	 0.0	 0.0	 1	 -30.0	 30.0;
	10218	 10190	 0.0001	 0.00123	 0.04912	 817.0	 817.0	 817.0	 0.0	 0.0	 1	 -30.0	 30.0;
	10218	 10197	 0.00086	 0.01148	 0.4	 850.0	 850.0	 850.0	 0.0	 0.0	 1	 -30.0	 30.0;
	10218	 10204	 0.00026	 0.00286	 0.08848	 775.0	 775.0	 775.0	 0.0	 0.0	 1	 -30.0	 30.0;
	10218	 10219	 0.0	 6e-05	 0.0	 479684.0	 479684.0	 479684.0	 0.0	 0.0	 1	 -30.0	 30.0;
	10219	 10191	 0.0001	 0.00124	 0.04976	 821.0	 821.0	 821.0	 0.0	 0.0	 1	 -30.0	 30.0;
	10219	 10198	 0.00104	 0.01237	 0.37936	 805.0	 805.0	 805.0	 0.0	 0.0	 1	 -30.0	 30.0;
	10219	 10204	 0.00026	 0.00307	 0.1088	 802.0	 802.0	 802.0	 0.0	 0.0	 1	 -30.0	 30.0;
	10220	 10194	 9e-05	 0.00101	 0.03168	 782.0	 782.0	 782.0	 0.0	 0.0	 1	 -30.0	 30.0;
	10220	 10195	 9e-05	 0.00097	 0.03072	 768.0	 768.0	 768.0	 0.0	 0.0	 1	 -30.0	 30.0;
...